REMARK  12 active torsions:
REMARK  status: ('A' for Active; 'I' for Inactive)
REMARK    1  A    between atoms: C_1  and  O_7 
REMARK    2  A    between atoms: C_2  and  O_9 
REMARK    3  A    between atoms: C_5  and  C_11 
REMARK    4  A    between atoms: C_12  and  C_13 
REMARK    5  A    between atoms: C_13  and  O_15 
REMARK    6  A    between atoms: C_13  and  C_14 
REMARK    7  A    between atoms: C_14  and  C_17 
REMARK    8  A    between atoms: C_17  and  C_18 
REMARK    9  A    between atoms: C_17  and  O_19 
REMARK   10  A    between atoms: C_21  and  C_22 
REMARK   11  A    between atoms: C_25  and  O_30 
REMARK   12  A    between atoms: C_26  and  O_28 
ROOT
HETATM    1  C   UNL     1       6.300  -3.637   0.000  1.00  0.00     0.072 C 
ENDROOT
BRANCH   1   2
HETATM    2  C   UNL     1       4.900  -3.637   0.000  1.00  0.00     0.068 C 
BRANCH   2   3
HETATM    3  C   UNL     1       4.200  -2.425   0.000  1.00  0.00     0.037 C 
HETATM    4  C   UNL     1       2.800  -2.425   0.000  1.00  0.00     0.014 C 
BRANCH   4   5
HETATM    5  C   UNL     1       2.100  -1.212   0.000  1.00  0.00    -0.033 A 
HETATM    6  C   UNL     1       2.800   0.000   0.000  1.00  0.00     0.014 A 
HETATM    7  C   UNL     1       2.100   1.212   0.000  1.00  0.00     0.040 A 
HETATM    8  C   UNL     1       0.700   1.212   0.000  1.00  0.00     0.099 A 
HETATM    9  C   UNL     1       0.000   0.000   0.000  1.00  0.00     0.102 A 
HETATM   10  C   UNL     1       0.700  -1.212   0.000  1.00  0.00     0.051 A 
BRANCH   8  11
HETATM   11  O   UNL     1       0.000   2.425   0.000  1.00  0.00    -0.358 OA
ATOM     12  HO  UNL     1       0.475   3.248   0.000  1.00  0.00     0.217 HD
ENDBRANCH   8  11
BRANCH   9  13
HETATM   13  O   UNL     1      -1.400   0.000   0.000  1.00  0.00    -0.353 OA
HETATM   14  C   UNL     1      -2.100  -1.212   0.000  1.00  0.00     0.210 C 
ENDBRANCH   9  13
ENDBRANCH   4   5
ENDBRANCH   2   3
BRANCH   2  15
HETATM   15  O   UNL     1       4.200  -4.850   0.000  1.00  0.00    -0.361 OA
ATOM     16  HO  UNL     1       4.675  -5.673   0.000  1.00  0.00     0.217 HD
ENDBRANCH   2  15
ENDBRANCH   1   2
BRANCH   1  17
HETATM   17  C   UNL     1       7.000  -4.850   0.000  1.00  0.00     0.068 C 
BRANCH  17  18
HETATM   18  C   UNL     1       8.400  -4.850   0.000  1.00  0.00     0.037 C 
HETATM   19  C   UNL     1       9.100  -6.062   0.000  1.00  0.00     0.014 C 
BRANCH  19  20
HETATM   20  C   UNL     1      10.500  -6.062   0.000  1.00  0.00    -0.033 A 
HETATM   21  C   UNL     1      11.200  -4.850   0.000  1.00  0.00     0.014 A 
HETATM   22  C   UNL     1      12.600  -4.850   0.000  1.00  0.00     0.040 A 
HETATM   23  C   UNL     1      13.300  -6.062   0.000  1.00  0.00     0.099 A 
HETATM   24  C   UNL     1      12.600  -7.275   0.000  1.00  0.00     0.102 A 
HETATM   25  C   UNL     1      11.200  -7.275   0.000  1.00  0.00     0.051 A 
BRANCH  23  26
HETATM   26  O   UNL     1      14.700  -6.062   0.000  1.00  0.00    -0.358 OA
ATOM     27  HO  UNL     1      15.175  -6.885   0.000  1.00  0.00     0.217 HD
ENDBRANCH  23  26
BRANCH  24  28
HETATM   28  O   UNL     1      13.300  -8.487   0.000  1.00  0.00    -0.353 OA
HETATM   29  C   UNL     1      14.700  -8.487   0.000  1.00  0.00     0.210 C 
ENDBRANCH  24  28
ENDBRANCH  19  20
ENDBRANCH  17  18
BRANCH  17  30
HETATM   30  O   UNL     1       6.300  -6.062   0.000  1.00  0.00    -0.361 OA
ATOM     31  HO  UNL     1       6.775  -6.885   0.000  1.00  0.00     0.217 HD
ENDBRANCH  17  30
ENDBRANCH   1  17
TORSDOF 12
