REMARK  6 active torsions:
REMARK  status: ('A' for Active; 'I' for Inactive)
REMARK    1  A    between atoms: S_1  and  C_28 
REMARK    2  A    between atoms: O_4  and  C_16 
REMARK    3  A    between atoms: O_4  and  C_22 
REMARK    4  A    between atoms: O_6  and  C_22 
REMARK    5  A    between atoms: N_10  and  C_20 
REMARK    6  A    between atoms: N_10  and  C_22 
ROOT
HETATM    1  S   UNL     1      10.375  -3.676   0.000  1.00  0.00     0.129 SA
HETATM    2  O   UNL     1       7.964  -3.422   0.000  1.00  0.00    -0.178 OA
HETATM    3  O   UNL     1      11.768  -3.822   0.000  1.00  0.00    -0.265 OA
HETATM    4  O   UNL     1       8.983  -3.529   0.000  1.00  0.00    -0.129 OA
HETATM    5  N   UNL     1      10.522  -2.283   0.000  1.00  0.00    -0.263 N 
HETATM    6  C   UNL     1       6.978  -1.207   0.000  1.00  0.00     0.075 A 
HETATM    7  C   UNL     1       8.110  -2.030   0.000  1.00  0.00     0.163 A 
HETATM    8  C   UNL     1       9.389  -1.460   0.000  1.00  0.00     0.098 A 
HETATM    9  C   UNL     1       7.124   0.185   0.000  1.00  0.00     0.045 A 
HETATM   10  C   UNL     1      11.801  -1.714   0.000  1.00  0.00     0.120 A 
HETATM   11  C   UNL     1      12.933  -2.537   0.000  1.00  0.00    -0.006 A 
HETATM   12  C   UNL     1       8.403   0.755   0.000  1.00  0.00    -0.021 A 
HETATM   13  C   UNL     1      12.787  -3.929   0.000  1.00  0.00     0.166 A 
HETATM   14  C   UNL     1      14.212  -1.967   0.000  1.00  0.00     0.026 C 
HETATM   15  C   UNL     1       9.536  -0.068   0.000  1.00  0.00     0.005 A 
HETATM   16  C   UNL     1       8.549   2.147   0.000  1.00  0.00     0.012 A 
HETATM   17  C   UNL     1      10.814   0.501   0.000  1.00  0.00     0.014 A 
HETATM   18  C   UNL     1       9.828   2.717   0.000  1.00  0.00     0.001 A 
HETATM   19  C   UNL     1      10.961   1.894   0.000  1.00  0.00     0.001 A 
ENDROOT
BRANCH   6  20
HETATM   20  N   UNL     1       5.699  -1.776   0.000  1.00  0.00    -0.313 N 
ATOM     21  HN  UNL     1       5.593  -2.790   0.000  1.00  0.00     0.170 HD
BRANCH  20  22
HETATM   22  C   UNL     1       4.566  -0.954   0.000  1.00  0.00     0.268 C 
BRANCH  22  23
HETATM   23  O   UNL     1       3.287  -1.523   0.000  1.00  0.00    -0.276 OA
BRANCH  23  24
HETATM   24  C   UNL     1       2.154  -0.700   0.000  1.00  0.00     0.091 A 
HETATM   25  C   UNL     1       2.154   0.700   0.000  1.00  0.00     0.125 A 
HETATM   26  C   UNL     1       0.823   1.133   0.000  1.00  0.00     0.284 A 
HETATM   27  C   UNL     1       2.977   1.833   0.000  1.00  0.00     0.014 A 
HETATM   28  O   UNL     1       0.000   0.000   0.000  1.00  0.00    -0.328 OA
HETATM   29  O   UNL     1       0.823   2.533   0.000  1.00  0.00    -0.331 OA
HETATM   30  C   UNL     1       0.823  -1.133   0.000  1.00  0.00     0.171 A 
HETATM   31  C   UNL     1       2.154   2.965   0.000  1.00  0.00     0.135 A 
ENDBRANCH  23  24
ENDBRANCH  22  23
BRANCH  22  32
HETATM   32  O   UNL     1       4.712   0.439   0.000  1.00  0.00    -0.327 OA
ATOM     33  HO  UNL     1       5.580   0.825   0.000  1.00  0.00     0.221 HD
ENDBRANCH  22  32
ENDBRANCH  20  22
ENDBRANCH   6  20
BRANCH   1  34
HETATM   34  C   UNL     1      10.229  -5.068   0.000  1.00  0.00     0.053 A 
HETATM   35  C   UNL     1       8.950  -5.637   0.000  1.00  0.00     0.025 A 
HETATM   36  C   UNL     1       8.804  -7.030   0.000  1.00  0.00     0.028 A 
HETATM   37  C   UNL     1       9.936  -7.853   0.000  1.00  0.00     0.046 A 
HETATM   38  N   UNL     1       9.790  -9.245   0.000  1.00  0.00    -0.102 NA
HETATM   39  C   UNL     1      11.215  -7.283   0.000  1.00  0.00     0.028 A 
HETATM   40  C   UNL     1      11.362  -5.891   0.000  1.00  0.00     0.025 A 
ENDBRANCH   1  34
TORSDOF 6
