REMARK  Name = Curcumin - Turmeric Extract
REMARK  7 active torsions:
REMARK  status: ('A' for Active; 'I' for Inactive)
REMARK    1  A    between atoms: C_1  and  O_7
REMARK    2  A    between atoms: C_5  and  C_10
REMARK    3  A    between atoms: C_11  and  C_12
REMARK    4  A    between atoms: C_12  and  C_13
REMARK    5  A    between atoms: C_15  and  C_16
REMARK    6  A    between atoms: C_18  and  C_19
REMARK    7  A    between atoms: C_23  and  O_25
REMARK                            x       y       z     vdW  Elec       q    Type
REMARK                         _______ _______ _______ _____ _____    ______ ____
ROOT
ATOM      1  C   UNL     1       6.300  -3.637   0.000  0.00  0.00    +0.000 C 
ATOM      2  C   UNL     1       7.000  -4.850   0.000  0.00  0.00    +0.000 C 
ATOM      3  O   UNL     1       6.300  -6.062   0.000  0.00  0.00    +0.000 OA
ENDROOT
BRANCH   1   4
ATOM      4  C   UNL     1       4.900  -3.637   0.000  0.00  0.00    +0.000 C 
ATOM      5  O   UNL     1       4.200  -4.850   0.000  0.00  0.00    +0.000 OA
BRANCH   4   7
ATOM      6  C   UNL     1       2.800  -2.425   0.000  0.00  0.00    +0.000 C 
ATOM      7  C   UNL     1       4.200  -2.425   0.000  0.00  0.00    +0.000 C 
BRANCH   6  12
ATOM      8  C   UNL     1       0.000   0.000   0.000  0.00  0.00    +0.000 A 
ATOM      9  C   UNL     1       0.700   1.212   0.000  0.00  0.00    +0.000 A 
ATOM     10  C   UNL     1       2.100   1.212   0.000  0.00  0.00    +0.000 A 
ATOM     11  C   UNL     1       2.800   0.000   0.000  0.00  0.00    +0.000 A 
ATOM     12  C   UNL     1       2.100  -1.212   0.000  0.00  0.00    +0.000 A 
ATOM     13  C   UNL     1       0.700  -1.212   0.000  0.00  0.00    +0.000 A 
ATOM     14  O   UNL     1       0.000   2.425   0.000  0.00  0.00    +0.000 OA
BRANCH   8  15
ATOM     15  O   UNL     1      -1.400   0.000   0.000  0.00  0.00    +0.000 OA
ATOM     16  C   UNL     1      -2.100  -1.212   0.000  0.00  0.00    +0.000 C 
ENDBRANCH   8  15
ENDBRANCH   6  12
ENDBRANCH   4   7
ENDBRANCH   1   4
BRANCH   2  17
ATOM     17  C   UNL     1       8.400  -4.850   0.000  0.00  0.00    +0.000 C 
ATOM     18  C   UNL     1       9.100  -6.062   0.000  0.00  0.00    +0.000 C 
BRANCH  18  19
ATOM     19  C   UNL     1      10.500  -6.062   0.000  0.00  0.00    +0.000 A 
ATOM     20  C   UNL     1      11.200  -4.850   0.000  0.00  0.00    +0.000 A 
ATOM     21  C   UNL     1      12.600  -4.850   0.000  0.00  0.00    +0.000 A 
ATOM     22  C   UNL     1      13.300  -6.062   0.000  0.00  0.00    +0.000 A 
ATOM     23  C   UNL     1      12.600  -7.275   0.000  0.00  0.00    +0.000 A 
ATOM     24  C   UNL     1      11.200  -7.275   0.000  0.00  0.00    +0.000 A 
ATOM     25  O   UNL     1      14.700  -6.062   0.000  0.00  0.00    +0.000 OA
BRANCH  23  26
ATOM     26  O   UNL     1      13.300  -8.487   0.000  0.00  0.00    +0.000 OA
ATOM     27  C   UNL     1      14.700  -8.487   0.000  0.00  0.00    +0.000 C 
ENDBRANCH  23  26
ENDBRANCH  18  19
ENDBRANCH   2  17
TORSDOF 7
