REMARK  Name = Darunavir
REMARK  12 active torsions:
REMARK  status: ('A' for Active; 'I' for Inactive)
REMARK    1  A    between atoms: S_1  and  N_10
REMARK    2  A    between atoms: S_1  and  C_26
REMARK    3  A    between atoms: O_4  and  C_14
REMARK    4  A    between atoms: O_4  and  C_20
REMARK    5  A    between atoms: N_9  and  C_18
REMARK    6  A    between atoms: N_10  and  C_21
REMARK    7  A    between atoms: N_10  and  C_23
REMARK    8  A    between atoms: C_18  and  C_19
REMARK    9  A    between atoms: C_18  and  C_22
REMARK   10  A    between atoms: C_19  and  C_21
REMARK   11  A    between atoms: C_22  and  C_25
REMARK   12  A    between atoms: C_23  and  C_24
REMARK                            x       y       z     vdW  Elec       q    Type
REMARK                         _______ _______ _______ _____ _____    ______ ____
ROOT
ATOM      1  C   UNL     1       6.978  -1.207   0.000  0.00  0.00    +0.000 C 
ENDROOT
BRANCH   1   3
ATOM      2  O   UNL     1       4.712   0.439   0.000  0.00  0.00    +0.000 OA
ATOM      3  N   UNL     1       5.699  -1.776   0.000  0.00  0.00    +0.000 NA
ATOM      4  C   UNL     1       4.566  -0.954   0.000  0.00  0.00    +0.000 C 
BRANCH   4   5
ATOM      5  O   UNL     1       3.287  -1.523   0.000  0.00  0.00    +0.000 OA
BRANCH   5  10
ATOM      6  O   UNL     1       0.000   0.000   0.000  0.00  0.00    +0.000 OA
ATOM      7  O   UNL     1       0.823   2.533   0.000  0.00  0.00    +0.000 OA
ATOM      8  C   UNL     1       2.154   0.700   0.000  0.00  0.00    +0.000 C 
ATOM      9  C   UNL     1       0.823   1.133   0.000  0.00  0.00    +0.000 C 
ATOM     10  C   UNL     1       2.154  -0.700   0.000  0.00  0.00    +0.000 C 
ATOM     11  C   UNL     1       2.977   1.833   0.000  0.00  0.00    +0.000 C 
ATOM     12  C   UNL     1       0.823  -1.133   0.000  0.00  0.00    +0.000 C 
ATOM     13  C   UNL     1       2.154   2.965   0.000  0.00  0.00    +0.000 C 
ENDBRANCH   5  10
ENDBRANCH   4   5
ENDBRANCH   1   3
BRANCH   1  15
ATOM     14  O   UNL     1       7.964  -3.422   0.000  0.00  0.00    +0.000 OA
ATOM     15  C   UNL     1       8.110  -2.030   0.000  0.00  0.00    +0.000 C 
BRANCH  15  16
ATOM     16  C   UNL     1       9.389  -1.460   0.000  0.00  0.00    +0.000 C 
BRANCH  16  17
ATOM     17  N   UNL     1      10.522  -2.283   0.000  0.00  0.00    +0.000 NA
BRANCH  17  18
ATOM     18  S   UNL     1      10.375  -3.676   0.000  0.00  0.00    +0.000 S 
ATOM     19  O   UNL     1      11.768  -3.822   0.000  0.00  0.00    +0.000 OA
ATOM     20  O   UNL     1       8.983  -3.529   0.000  0.00  0.00    +0.000 OA
BRANCH  18  22
ATOM     21  N   UNL     1       9.790  -9.245   0.000  0.00  0.00    +0.000 NA
ATOM     22  C   UNL     1      10.229  -5.068   0.000  0.00  0.00    +0.000 A 
ATOM     23  C   UNL     1       8.950  -5.637   0.000  0.00  0.00    +0.000 A 
ATOM     24  C   UNL     1      11.362  -5.891   0.000  0.00  0.00    +0.000 A 
ATOM     25  C   UNL     1       8.804  -7.030   0.000  0.00  0.00    +0.000 A 
ATOM     26  C   UNL     1      11.215  -7.283   0.000  0.00  0.00    +0.000 A 
ATOM     27  C   UNL     1       9.936  -7.853   0.000  0.00  0.00    +0.000 A 
ENDBRANCH  18  22
ENDBRANCH  17  18
BRANCH  17  28
ATOM     28  C   UNL     1      11.801  -1.714   0.000  0.00  0.00    +0.000 C 
BRANCH  28  29
ATOM     29  C   UNL     1      12.933  -2.537   0.000  0.00  0.00    +0.000 C 
ATOM     30  C   UNL     1      12.787  -3.929   0.000  0.00  0.00    +0.000 C 
ATOM     31  C   UNL     1      14.212  -1.967   0.000  0.00  0.00    +0.000 C 
ENDBRANCH  28  29
ENDBRANCH  17  28
ENDBRANCH  16  17
ENDBRANCH  15  16
ENDBRANCH   1  15
BRANCH   1  32
ATOM     32  C   UNL     1       7.124   0.185   0.000  0.00  0.00    +0.000 C 
BRANCH  32  33
ATOM     33  C   UNL     1       8.403   0.755   0.000  0.00  0.00    +0.000 A 
ATOM     34  C   UNL     1       9.536  -0.068   0.000  0.00  0.00    +0.000 A 
ATOM     35  C   UNL     1       8.549   2.147   0.000  0.00  0.00    +0.000 A 
ATOM     36  C   UNL     1      10.814   0.501   0.000  0.00  0.00    +0.000 A 
ATOM     37  C   UNL     1       9.828   2.717   0.000  0.00  0.00    +0.000 A 
ATOM     38  C   UNL     1      10.961   1.894   0.000  0.00  0.00    +0.000 A 
ENDBRANCH  32  33
ENDBRANCH   1  32
TORSDOF 12
