REMARK  Name = C21H29N6O5P
REMARK  12 active torsions:
REMARK  status: ('A' for Active; 'I' for Inactive)
REMARK    1  A    between atoms: N_7  and  C_10
REMARK    2  A    between atoms: C_10  and  C_12
REMARK    3  A    between atoms: C_12  and  O_14
REMARK    4  A    between atoms: O_14  and  C_16
REMARK    5  A    between atoms: C_16  and  P_17
REMARK    6  A    between atoms: P_17  and  O_18
REMARK    7  A    between atoms: P_17  and  N_20
REMARK    8  A    between atoms: O_18  and  C_26
REMARK    9  A    between atoms: N_20  and  C_21
REMARK   10  A    between atoms: C_21  and  C_22
REMARK   11  A    between atoms: C_22  and  O_23
REMARK   12  A    between atoms: O_23  and  C_33
REMARK                            x       y       z     vdW  Elec       q    Type
REMARK                         _______ _______ _______ _____ _____    ______ ____
ROOT
ATOM      1  P   UNL     1       6.863  -0.778   0.000  0.00  0.00    +0.000 P 
ATOM      2  O   UNL     1       7.648  -1.033   0.000  0.00  0.00    +0.000 OA
ENDROOT
BRANCH   1   3
ATOM      3  C   UNL     1       7.118   0.006   0.000  0.00  0.00    +0.000 C 
BRANCH   3   4
ATOM      4  O   UNL     1       6.566   0.620   0.000  0.00  0.00    +0.000 OA
BRANCH   4   5
ATOM      5  C   UNL     1       6.821   1.404   0.000  0.00  0.00    +0.000 C 
ATOM      6  C   UNL     1       7.628   1.576   0.000  0.00  0.00    +0.000 C 
BRANCH   5   7
ATOM      7  C   UNL     1       6.269   2.017   0.000  0.00  0.00    +0.000 C 
BRANCH   7  14
ATOM      8  C   UNL     1       8.023   4.294   0.000  0.00  0.00    +0.000 A 
ATOM      9  N   UNL     1       8.738   3.882   0.000  0.00  0.00    +0.000 NA
ATOM     10  C   UNL     1       8.738   3.057   0.000  0.00  0.00    +0.000 A 
ATOM     11  N   UNL     1       8.023   2.644   0.000  0.00  0.00    +0.000 NA
ATOM     12  C   UNL     1       7.309   3.057   0.000  0.00  0.00    +0.000 A 
ATOM     13  C   UNL     1       7.309   3.882   0.000  0.00  0.00    +0.000 A 
ATOM     14  N   UNL     1       6.524   2.802   0.000  0.00  0.00    +0.000 N 
ATOM     15  C   UNL     1       6.039   3.469   0.000  0.00  0.00    +0.000 A 
ATOM     16  N   UNL     1       6.524   4.137   0.000  0.00  0.00    +0.000 NA
ATOM     17  N   UNL     1       8.023   5.119   0.000  0.00  0.00    +0.000 NA
ENDBRANCH   7  14
ENDBRANCH   5   7
ENDBRANCH   4   5
ENDBRANCH   3   4
ENDBRANCH   1   3
BRANCH   1  18
ATOM     18  O   UNL     1       6.079  -0.523   0.000  0.00  0.00    +0.000 OA
BRANCH  18  19
ATOM     19  C   UNL     1       5.465  -1.075   0.000  0.00  0.00    +0.000 A 
ATOM     20  C   UNL     1       5.637  -1.882   0.000  0.00  0.00    +0.000 A 
ATOM     21  C   UNL     1       5.024  -2.434   0.000  0.00  0.00    +0.000 A 
ATOM     22  C   UNL     1       4.239  -2.179   0.000  0.00  0.00    +0.000 A 
ATOM     23  C   UNL     1       4.068  -1.372   0.000  0.00  0.00    +0.000 A 
ATOM     24  C   UNL     1       4.681  -0.820   0.000  0.00  0.00    +0.000 A 
ENDBRANCH  18  19
ENDBRANCH   1  18
BRANCH   1  25
ATOM     25  N   UNL     1       6.608  -1.563   0.000  0.00  0.00    +0.000 NA
BRANCH  25  26
ATOM     26  C   UNL     1       7.160  -2.176   0.000  0.00  0.00    +0.000 C 
ATOM     27  C   UNL     1       7.967  -2.004   0.000  0.00  0.00    +0.000 C 
BRANCH  26  28
ATOM     28  C   UNL     1       6.905  -2.961   0.000  0.00  0.00    +0.000 C 
ATOM     29  O   UNL     1       6.098  -3.132   0.000  0.00  0.00    +0.000 OA
BRANCH  28  30
ATOM     30  O   UNL     1       7.457  -3.574   0.000  0.00  0.00    +0.000 OA
BRANCH  30  31
ATOM     31  C   UNL     1       7.202  -4.358   0.000  0.00  0.00    +0.000 C 
ATOM     32  C   UNL     1       7.755  -4.971   0.000  0.00  0.00    +0.000 C 
ATOM     33  C   UNL     1       6.395  -4.530   0.000  0.00  0.00    +0.000 C 
ENDBRANCH  30  31
ENDBRANCH  28  30
ENDBRANCH  26  28
ENDBRANCH  25  26
ENDBRANCH   1  25
TORSDOF 12
