REMARK  5 active torsions:
REMARK  status: ('A' for Active; 'I' for Inactive)
REMARK    1  A    between atoms: C1*_5  and  C3*_18 
REMARK    2  A    between atoms: C_11  and  C_13 
REMARK    3  A    between atoms: O_12  and  C_13 
REMARK    4  A    between atoms: C2*_17  and  C3*_18 
REMARK    5  A    between atoms: C2*_17  and  O3*_19 
ROOT
HETATM    1  O5* UNL     1      -1.196   3.104   0.000  1.00  0.00    -0.296 OA
HETATM    2  C5* UNL     1      -0.482   2.691   0.000  1.00  0.00     0.150 A 
HETATM    3  C4* UNL     1      -0.482   1.866   0.000  1.00  0.00     0.065 A 
HETATM    4  O4* UNL     1       0.185   1.381   0.000  1.00  0.00     0.000 OA
HETATM    5  C1* UNL     1      -0.069   0.597   0.000  1.00  0.00     0.041 A 
HETATM    6  N   UNL     1       0.415  -0.071   0.000  1.00  0.00     0.000 N 
HETATM    7  C   UNL     1       0.080  -0.824   0.000  1.00  0.00     0.020 A 
HETATM    8  C   UNL     1       1.236   0.016   0.000  1.00  0.00     0.183 A 
HETATM    9  O   UNL     1       1.572   0.769   0.000  1.00  0.00    -0.221 OA
HETATM   10  N   UNL     1       1.721  -0.652   0.000  1.00  0.00     0.000 N 
HETATM   11  C   UNL     1       1.385  -1.406   0.000  1.00  0.00     0.003 A 
HETATM   12  O   UNL     1       1.870  -2.073   0.000  1.00  0.00     0.000 OA
HETATM   13  C   UNL     1       0.565  -1.492   0.000  1.00  0.00     0.020 A 
HETATM   14  C   UNL     1       0.229  -2.245   0.000  1.00  0.00     0.049 A 
HETATM   15  C   UNL     1      -0.591  -2.332   0.000  1.00  0.00     0.049 A 
HETATM   16 BR   UNL     1      -0.927  -3.085   0.000  1.00  0.00    -0.141 Br
HETATM   17  C2* UNL     1      -0.894   0.597   0.000  1.00  0.00     0.017 A 
HETATM   18  C3* UNL     1      -1.149   1.381   0.000  1.00  0.00     0.061 A 
HETATM   19  O3* UNL     1      -1.934   1.636   0.000  1.00  0.00     0.000 OA
ENDROOT
TORSDOF 5
