REMARK  7 active torsions:
REMARK  status: ('A' for Active; 'I' for Inactive)
REMARK    1  A    between atoms: C_1  and  C_2 
REMARK    2  A    between atoms: C_2  and  N_12 
REMARK    3  A    between atoms: C4*_8  and  C2*_15 
REMARK    4  A    between atoms: C1*_10  and  N_11 
REMARK    5  A    between atoms: C1*_10  and  C3*_16 
REMARK    6  A    between atoms: N_11  and  N_12 
REMARK    7  A    between atoms: N_12  and  O_13 
ROOT
HETATM    1  C   UNL     1       0.048  -1.150   0.000  1.00  0.00     0.024 A 
HETATM    2  C   UNL     1       1.353  -1.731   0.000  1.00  0.00     0.057 A 
HETATM    3  C   UNL     1       1.689  -0.977   0.000  1.00  0.00     0.054 A 
HETATM    4  C   UNL     1       1.204  -0.310   0.000  1.00  0.00    -0.007 A 
HETATM    5  O   UNL     1      -0.772  -1.236   0.000  1.00  0.00     0.000 OA
HETATM    6  N   UNL     1       0.384  -0.396   0.000  1.00  0.00     0.000 N 
HETATM    7  N   UNL     1       0.533  -1.817   0.000  1.00  0.00     0.000 N 
HETATM    8  O   UNL     1       1.838  -2.398   0.000  1.00  0.00     0.000 OA
HETATM    9  I   UNL     1       2.509  -0.891   0.000  1.00  0.00    -0.127 I 
ENDROOT
BRANCH   6  10
HETATM   10  C1* UNL     1      -0.101   0.271   0.000  1.00  0.00     0.071 A 
HETATM   11  O4* UNL     1       0.153   1.056   0.000  1.00  0.00     0.000 OA
HETATM   12  C4* UNL     1      -0.514   1.541   0.000  1.00  0.00     0.113 A 
HETATM   13  C2* UNL     1      -0.926   0.271   0.000  1.00  0.00     0.132 A 
HETATM   14  C5* UNL     1      -0.514   2.366   0.000  1.00  0.00     0.179 A 
HETATM   15  C3* UNL     1      -1.181   1.056   0.000  1.00  0.00     0.151 A 
HETATM   16  O5* UNL     1      -1.228   2.779   0.000  1.00  0.00    -0.293 OA
HETATM   17  O3* UNL     1      -1.966   1.311   0.000  1.00  0.00    -0.353 OA
ENDBRANCH   6  10
TORSDOF 7
