REMARK  Name = C2H5O5P
REMARK  2 active torsions:
REMARK  status: ('A' for Active; 'I' for Inactive)
REMARK    1  A    between atoms: P_1  and  C_2
REMARK    2  A    between atoms: C_2  and  C_3
REMARK                            x       y       z     vdW  Elec       q    Type
REMARK                         _______ _______ _______ _____ _____    ______ ____
ROOT
ATOM      1  P   UNL     1       4.775  -4.825   0.000  0.00  0.00    +0.000 P 
ATOM      2  O   UNL     1       4.775  -4.000   0.000  0.00  0.00    +0.000 OA
ATOM      3  O   UNL     1       4.117  -4.825   0.000  0.00  0.00    +0.000 OA
ATOM      4  O   UNL     1       5.425  -4.825   0.000  0.00  0.00    +0.000 OA
ENDROOT
BRANCH   1   5
ATOM      5  C   UNL     1       4.775  -5.529   0.000  0.00  0.00    +0.000 C 
BRANCH   5   6
ATOM      6  C   UNL     1       5.379  -5.879   0.000  0.00  0.00    +0.000 C 
ATOM      7  O   UNL     1       6.029  -5.529   0.000  0.00  0.00    +0.000 OA
ATOM      8  O   UNL     1       5.325  -6.567   0.000  0.00  0.00    +0.000 OA
ENDBRANCH   5   6
ENDBRANCH   1   5
TORSDOF 2
