C16H28N2O2
  MOLSOFT 04262021142D

 20 22  0  0  0  0  0  0  0  0999 V2000
   -1.9461   -0.1224    0.0000 C   0  0  0
   -1.9461   -0.9527    0.0000 N   0  0  0
   -1.2294   -1.3664    0.0000 C   0  0  0
   -1.5004    1.5703    0.0000 C   0  0  0
   -2.1297    0.2797    0.0000 C   0  0  0
   -0.6730    0.2797    0.0000 C   0  0  0
   -2.6541   -0.3700    0.0000 C   0  0  0
   -1.1887   -0.3700    0.0000 C   0  0  0
   -1.9461    0.8973    0.0000 C   0  0  0
   -1.2207   -2.1851    0.0000 O   0  0  0
   -1.2469    0.0145    0.0000 C   0  0  0
   -2.1297    1.2731    0.0000 C   0  0  0
   -0.6730    1.1420    0.0000 C   0  0  0
    2.3191   -0.9527    0.0000 N   0  0  0
   -0.5244   -0.9527    0.0000 C   0  0  0
    0.1835   -1.3664    0.0000 O   0  0  0
    1.6082   -1.3664    0.0000 C   0  0  0
    2.3191   -0.1340    0.0000 C   0  0  0
    3.0358   -1.3664    0.0000 C   0  0  0
    0.8944   -0.9527    0.0000 C   0  0  0
  1  2  1
  3  2  1
  4  9  1
  5  7  1
  6  8  1
  7  1  1
  8  1  1
  9  1  1
 10  3  2
 11  6  1
  4 12  1
  4 13  1
 14 17  1
 15  3  1
 16 15  1
 17 20  1
 18 14  1
 19 14  1
 20 16  1
  6 13  1
  5 12  1
  5 11  1
M  END
> <molLogP>
1.559392

> <molLogS>
-2.590212

> <drugLikeness>
0.164444

> <chembl_id>
CHEMBL3989506

> <chembl_pref_name>
TROMANTADINE

$$$$
C21H29N6O5P
  MOLSOFT 04262021142D

 35 37  0  0  1  0  0  0  0  0999 V2000
    8.0230    4.2943    0.0000 C   0  0  0
    8.7375    3.8818    0.0000 N   0  0  0
    8.7375    3.0568    0.0000 C   0  0  0
    8.0230    2.6443    0.0000 N   0  0  0
    7.3085    3.0568    0.0000 C   0  0  0
    7.3085    3.8818    0.0000 C   0  0  0
    6.5239    2.8019    0.0000 N   0  0  0
    6.0390    3.4693    0.0000 C   0  0  0
    6.5239    4.1368    0.0000 N   0  0  0
    6.2690    2.0173    0.0000 C   0  0  0
    8.0230    5.1193    0.0000 N   0  0  0
    6.8210    1.4042    0.0000 C   0  0  1
    7.6280    1.5757    0.0000 C   0  0  0
    6.5661    0.6196    0.0000 O   0  0  0
    7.0760    2.1888    0.0000 H   0  0  0
    7.1181    0.0065    0.0000 C   0  0  0
    6.8632   -0.7782    0.0000 P   0  0  1
    6.0785   -0.5232    0.0000 O   0  0  0
    7.6478   -1.0331    0.0000 O   0  0  0
    6.6082   -1.5628    0.0000 N   0  0  0
    7.1603   -2.1759    0.0000 C   0  0  2
    6.9053   -2.9605    0.0000 C   0  0  0
    7.4574   -3.5736    0.0000 O   0  0  0
    7.9672   -2.0043    0.0000 C   0  0  0
    7.7123   -2.7890    0.0000 H   0  0  0
    5.4655   -1.0752    0.0000 C   0  0  0
    5.6370   -1.8822    0.0000 C   0  0  0
    5.0239   -2.4343    0.0000 C   0  0  0
    4.2393   -2.1793    0.0000 C   0  0  0
    4.0677   -1.3723    0.0000 C   0  0  0
    4.6808   -0.8203    0.0000 C   0  0  0
    6.0984   -3.1320    0.0000 O   0  0  0
    7.2024   -4.3582    0.0000 C   0  0  0
    7.7545   -4.9713    0.0000 C   0  0  0
    6.3954   -4.5297    0.0000 C   0  0  0
  1  2  2
  1  6  1
  1 11  1
  2  3  1
  3  4  2
  4  5  1
  5  7  1
  6  5  2
  6  9  1
  7  8  1
  7 10  1
  8  9  2
 12 10  1
 12 13  1  1
 12 14  1
 12 15  1  6
 14 16  1
 17 16  1
 17 18  1
 17 19  2
 17 20  1  1
 18 26  1
 21 20  1
 21 22  1
 21 24  1  1
 21 25  1  6
 22 23  1
 22 32  2
 23 33  1
 26 27  2
 26 31  1
 27 28  1
 28 29  2
 29 30  1
 30 31  2
 33 34  1
 33 35  1
M  END
> <molLogP>
0.254815

> <molLogS>
-4.159267

> <drugLikeness>
0.698809

> <chembl_id>
CHEMBL2107825

> <chembl_pref_name>
TENOFOVIR ALAFENAMIDE

$$$$
C2H5O5P
  MOLSOFT 04262021142D

  8  7  0  0  0  0  0  0  0  0999 V2000
    4.7750   -4.8250    0.0000 P   0  0  0
    4.7750   -5.5292    0.0000 C   0  0  0
    5.3792   -5.8792    0.0000 C   0  0  0
    4.7750   -4.0000    0.0000 O   0  0  0
    4.1167   -4.8250    0.0000 O   0  0  0
    6.0292   -5.5292    0.0000 O   0  0  0
    5.4250   -4.8250    0.0000 O   0  0  0
    5.3250   -6.5667    0.0000 O   0  0  0
  2  1  1
  3  2  1
  4  1  1
  5  1  2
  6  3  2
  7  1  1
  8  3  1
M  END
> <molLogP>
-2.810004

> <molLogS>
1.297757

> <drugLikeness>
-1.059985

> <chembl_id>
CHEMBL50300

> <chembl_pref_name>
FOSFONET

$$$$
C22H18N6
  MOLSOFT 04262021142D

 28 30  0  0  0  0  0  0  0  0999 V2000
   -6.2759   -3.4179    0.0000 C   0  0  0
   -6.9904   -3.8304    0.0000 C   0  0  0
   -6.9904   -4.6554    0.0000 C   0  0  0
   -6.2759   -5.0679    0.0000 C   0  0  0
   -5.5614   -4.6554    0.0000 C   0  0  0
   -5.5614   -3.8304    0.0000 C   0  0  0
   -7.7049   -3.4179    0.0000 C   0  0  0
   -8.4193   -3.8303    0.0000 C   0  0  0
   -9.1338   -3.4178    0.0000 C   0  0  0
   -9.8483   -3.0053    0.0000 N   0  0  0
   -6.2759   -5.8929    0.0000 C   0  0  0
   -4.8469   -3.4179    0.0000 C   0  0  0
   -4.8469   -5.0679    0.0000 N   0  0  0
   -4.1325   -4.6554    0.0000 C   0  0  0
   -3.4180   -5.0679    0.0000 N   0  0  0
   -2.7035   -4.6554    0.0000 C   0  0  0
   -2.7035   -3.8304    0.0000 N   0  0  0
   -3.4180   -3.4178    0.0000 C   0  0  0
   -4.1325   -3.8303    0.0000 C   0  0  0
   -1.9890   -5.0679    0.0000 N   0  0  0
   -1.2746   -4.6554    0.0000 C   0  0  0
   -0.5601   -5.0679    0.0000 C   0  0  0
    0.1544   -4.6554    0.0000 C   0  0  0
    0.1544   -3.8304    0.0000 C   0  0  0
   -0.5601   -3.4179    0.0000 C   0  0  0
   -1.2746   -3.8304    0.0000 C   0  0  0
    0.8689   -3.4179    0.0000 C   0  0  0
    1.5833   -3.0054    0.0000 N   0  0  0
  1  2  1
  1  6  2
  2  3  2
  3  4  1
  4  5  2
  5  6  1
  2  7  1
  7  8  2
  8  9  1
  9 10  3
  4 11  1
  6 12  1
  5 13  1
 13 14  1
 14 15  1
 14 19  2
 15 16  2
 16 17  1
 17 18  2
 18 19  1
 16 20  1
 20 21  1
 21 22  1
 21 26  2
 22 23  2
 23 24  1
 24 25  2
 25 26  1
 24 27  1
 27 28  3
M  END
> <molLogP>
4.888824

> <molLogS>
-6.669239

> <drugLikeness>
-0.121941

> <chembl_id>
CHEMBL175691

> <chembl_pref_name>
RILPIVIRINE

$$$$
C10H10N4OS
  MOLSOFT 04262021142D

 16 17  0  0  0  0  0  0  0  0999 V2000
    0.3489    0.6563    0.0000 C   0  0  0
    0.8391    1.3293    0.0000 C   0  0  0
    0.3489    1.9939    0.0000 N   0  0  0
   -0.4362    0.9097    0.0000 C   0  0  0
   -0.4362    1.7405    0.0000 C   0  0  0
    0.6024   -0.1288    0.0000 N   0  0  0
    1.6616   -1.0759    0.0000 C   0  0  0
    1.4082   -0.2991    0.0000 N   0  0  0
    1.6616    1.3293    0.0000 O   0  0  0
    1.1133   -1.6948    0.0000 S   0  0  0
    2.4675   -1.2504    0.0000 N   0  0  0
    0.6024    2.7749    0.0000 C   0  0  0
   -1.1548    0.4985    0.0000 C   0  0  0
   -1.1548    2.1518    0.0000 C   0  0  0
   -1.8651    0.9097    0.0000 C   0  0  0
   -1.8651    1.7322    0.0000 C   0  0  0
  2  1  1
  3  2  1
  4  1  1
  5  4  2
  6  1  2
  7  8  1
  8  6  1
  9  2  2
 10  7  2
 11  7  1
 12  3  1
 13  4  1
 14  5  1
 15 13  2
 16 15  1
  3  5  1
 14 16  2
M  END
> <molLogP>
1.832411

> <molLogS>
-2.699768

> <drugLikeness>
0.272459

> <chembl_id>
CHEMBL1512080

> <chembl_pref_name>
METHISAZONE

$$$$
C20H19F2N3O5
  MOLSOFT 04262021142D

 31 34  0  0  1  0  0  0  0  0999 V2000
    3.1250    1.5250    0.0000 C   0  0  0
    2.4042    1.9375    0.0000 C   0  0  0
    3.8375    1.9417    0.0000 C   0  0  0
    1.6958    0.7000    0.0000 C   0  0  0
    3.1208    0.6958    0.0000 N   0  0  0
    4.5542    1.5250    0.0000 N   0  0  0
    1.6917    1.5208    0.0000 C   0  0  0
    2.4125    0.2875    0.0000 C   0  0  0
    4.5500    0.6917    0.0000 C   0  0  2
    0.9833    0.2875    0.0000 C   0  0  0
    3.8375    0.2833    0.0000 C   0  0  0
    2.4000    2.7625    0.0000 O   0  0  0
    0.2667    0.7000    0.0000 N   0  0  0
   -1.8792    0.2833    0.0000 C   0  0  0
   -1.1625    0.6958    0.0000 C   0  0  0
    3.8375    2.7667    0.0000 O   0  0  0
    5.2667    0.2750    0.0000 O   0  0  0
   -2.5917    0.6958    0.0000 C   0  0  0
    5.2750    1.9417    0.0000 C   0  0  1
    0.9750    1.9333    0.0000 O   0  0  0
   -0.4458    0.2833    0.0000 C   0  0  0
    0.9833   -0.5375    0.0000 O   0  0  0
   -1.1625    1.5250    0.0000 C   0  0  0
   -2.5917    1.5250    0.0000 C   0  0  0
   -1.8792   -0.5417    0.0000 F   0  0  0
    5.9917    0.6875    0.0000 C   0  0  0
    5.9958    1.5208    0.0000 C   0  0  0
   -1.8792    1.9375    0.0000 C   0  0  0
   -3.3042    1.9333    0.0000 F   0  0  0
    5.2667    2.7708    0.0000 C   0  0  0
    4.5417   -0.1292    0.0000 H   0  0  0
  2  1  2
  3  1  1
  4  8  2
  5  1  1
  6  3  1
  7  2  1
  8  5  1
  9  6  1
 10  4  1
 11  5  1
 12  2  1
 13 10  1
 14 15  2
 15 21  1
 16  3  2
  9 17  1
 18 14  1
 19  6  1
 20  7  2
 21 13  1
 22 10  2
 23 15  1
 24 28  1
 25 14  1
 26 27  1
 19 27  1
 28 23  2
 29 24  1
 19 30  1  6
  9 31  1  6
  9 11  1
  4  7  1
 26 17  1
 18 24  2
M  END
> <molLogP>
1.2375

> <molLogS>
-3.783443

> <drugLikeness>
0.982618

> <chembl_id>
CHEMBL1229211

> <chembl_pref_name>
DOLUTEGRAVIR

$$$$
C11H13BrN2O5
  MOLSOFT 04262021142D

 19 20  0  0  1  0  0  0  0  0999 V2000
   -1.1964    3.1038    0.0000 O   0  0  0
   -0.4819    2.6913    0.0000 C   0  0  0
   -0.4819    1.8663    0.0000 C   0  0  1
    0.1855    1.3814    0.0000 O   0  0  0
   -0.0694    0.5968    0.0000 C   0  0  1
    0.4155   -0.0707    0.0000 N   0  0  0
    0.0800   -0.8243    0.0000 C   0  0  0
    1.2360    0.0156    0.0000 C   0  0  0
    1.5716    0.7692    0.0000 O   0  0  0
    1.7209   -0.6519    0.0000 N   0  0  0
    1.3854   -1.4056    0.0000 C   0  0  0
    1.8703   -2.0730    0.0000 O   0  0  0
    0.5649   -1.4918    0.0000 C   0  0  0
    0.2293   -2.2455    0.0000 C   0  0  0
   -0.5911   -2.3317    0.0000 C   0  0  0
   -0.9267   -3.0854    0.0000 Br  0  0  0
   -0.8944    0.5968    0.0000 C   0  0  0
   -1.1493    1.3814    0.0000 C   0  0  2
   -1.9340    1.6363    0.0000 O   0  0  0
  2  1  1
  3  2  1  1
  3  4  1
 18  3  1
  5  4  1
  5  6  1  1
  5 17  1
  7  6  1
  8  6  1
 13  7  2
  8  9  2
  8 10  1
 11 10  1
 11 12  2
 11 13  1
 13 14  1
 14 15  2
 16 15  1
 18 17  1
 18 19  1  6
M  END
> <molLogP>
-0.476583

> <molLogS>
-2.27067

> <drugLikeness>
0.833629

> <chembl_id>
CHEMBL31634

> <chembl_pref_name>
BRIVUDINE

$$$$
C17H11ClF3N5O3
  MOLSOFT 04262021142D

 29 31  0  0  0  0  0  0  0  0999 V2000
    4.1630   -1.5257    0.0000 C   0  0  0
    3.6781   -0.8582    0.0000 C   0  0  0
    3.8274   -2.2794    0.0000 C   0  0  0
    4.3124   -2.9468    0.0000 O   0  0  0
    3.0070   -2.3656    0.0000 C   0  0  0
    2.5220   -1.6981    0.0000 C   0  0  0
    0.8811   -1.8706    0.0000 N   0  0  0
    1.7016   -1.7844    0.0000 C   0  0  0
    2.8576   -0.9445    0.0000 C   0  0  0
    4.0136   -0.1046    0.0000 Cl  0  0  0
    5.7270    0.6700    0.0000 C   0  0  0
    5.0596    0.1851    0.0000 N   0  0  0
    5.7270    1.4950    0.0000 O   0  0  0
    6.2889   -2.0206    0.0000 N   0  0  0
    6.7738   -2.6881    0.0000 C   0  0  0
    6.4382   -3.4418    0.0000 C   0  0  0
    5.6178   -3.5280    0.0000 C   0  0  0
    5.1328   -2.8606    0.0000 C   0  0  0
    5.4684   -2.1069    0.0000 C   0  0  0
    4.9835   -1.4394    0.0000 O   0  0  0
    6.0359   -4.6172    0.0000 F   0  0  0
    4.5285   -3.9461    0.0000 F   0  0  0
    4.9467   -5.0353    0.0000 F   0  0  0
    5.2822   -4.2817    0.0000 C   0  0  0
    5.3145   -0.5995    0.0000 N   0  0  0
    6.1395   -0.5995    0.0000 C   0  0  0
    6.6244   -1.2670    0.0000 C   0  0  0
    6.3945    0.1851    0.0000 N   0  0  0
    7.1791    0.4400    0.0000 C   0  0  0
  1  2  2
  1  3  1
  2 10  1
  3  5  2
  4  3  1
  4 18  1
  5  6  1
  6  9  2
  8  7  3
  8  6  1
  9  2  1
 11 12  1
 11 28  1
 12 25  1
 13 11  2
 14 15  1
 14 27  1
 14 19  1
 15 16  2
 16 17  1
 17 24  1
 18 17  2
 18 19  1
 19 20  2
 24 23  1
 24 22  1
 24 21  1
 25 26  2
 26 27  1
 26 28  1
 28 29  1
M  END
> <molLogP>
2.072411

> <molLogS>
-5.124191

> <drugLikeness>
-0.680804

> <chembl_id>
CHEMBL2364608

> <chembl_pref_name>
DORAVIRINE

$$$$
C18H18F3N3O3
  MOLSOFT 04262021142D

 27 29  0  0  0  0  0  0  0  0999 V2000
   -3.5682    1.8828    0.0000 O   0  0  0
   -4.3752    2.0544    0.0000 N   0  0  0
   -4.7877    1.3399    0.0000 C   0  0  0
   -5.6082    1.2537    0.0000 C   0  0  0
   -4.2356    0.7268    0.0000 C   0  0  0
   -3.4820    1.0624    0.0000 C   0  0  0
   -2.7675    0.6499    0.0000 C   0  0  0
   -2.0530    1.0624    0.0000 C   0  0  0
   -1.3386    0.6499    0.0000 C   0  0  0
   -0.6241    1.0624    0.0000 O   0  0  0
    0.0904    0.6499    0.0000 C   0  0  0
    0.8049    1.0624    0.0000 C   0  0  0
    0.8049    1.8874    0.0000 C   0  0  0
    1.5193    0.6499    0.0000 C   0  0  0
    1.5193   -0.1751    0.0000 C   0  0  0
    0.8049   -0.5876    0.0000 C   0  0  0
    0.0904   -0.1751    0.0000 C   0  0  0
   -0.6241   -0.5876    0.0000 C   0  0  0
    2.2338   -0.5876    0.0000 C   0  0  0
    2.9875   -0.2521    0.0000 N   0  0  0
    2.3200   -1.4081    0.0000 N   0  0  0
    3.1270   -1.5796    0.0000 C   0  0  0
    3.4626   -2.3333    0.0000 C   0  0  0
    3.5395   -0.8652    0.0000 O   0  0  0
    3.7981   -3.0870    0.0000 F   0  0  0
    2.7089   -2.6689    0.0000 F   0  0  0
    4.2162   -1.9978    0.0000 F   0  0  0
  2  1  1
  6  1  1
  3  2  2
  3  4  1
  3  5  1
  5  6  2
  7  6  1
  7  8  1
  8  9  1
  9 10  1
 11 10  1
 11 12  2
 11 17  1
 12 13  1
 12 14  1
 14 15  2
 15 16  1
 19 15  1
 16 17  2
 17 18  1
 19 20  2
 19 21  1
 20 24  1
 22 21  2
 22 23  1
 22 24  1
 23 25  1
 23 26  1
 23 27  1
M  END
> <molLogP>
4.868673

> <molLogS>
-5.747278

> <drugLikeness>
-0.089589

> <chembl_id>
CHEMBL29609

> <chembl_pref_name>
PLECONARIL

$$$$
C26H27N3O5S
  MOLSOFT 04262021142D

 35 38  0  0  0  0  0  0  0  0999 V2000
    1.5699   -1.3571    0.0000 C   0  0  0
    2.2844   -1.7696    0.0000 C   0  0  0
    2.9989   -2.1821    0.0000 C   0  0  0
    2.9989   -3.0071    0.0000 C   0  0  0
    3.7134   -3.4196    0.0000 C   0  0  0
    3.7134   -4.2446    0.0000 N   0  0  0
    4.4278   -3.0071    0.0000 C   0  0  0
    4.4278   -2.1821    0.0000 C   0  0  0
    5.1423   -1.7696    0.0000 C   0  0  0
    5.1423   -0.9446    0.0000 C   0  0  0
    5.8568   -0.5321    0.0000 C   0  0  0
    8.0002   -0.9446    0.0000 C   0  0  0
    8.7147   -0.5321    0.0000 N   0  0  0
    8.0002   -1.7696    0.0000 C   0  0  0
    7.2857   -2.1821    0.0000 C   0  0  0
    6.5712   -1.7696    0.0000 C   0  0  0
    5.8568   -2.1821    0.0000 C   0  0  0
    3.7134   -1.7696    0.0000 C   0  0  0
    4.4278   -0.5321    0.0000 C   0  0  0
    3.7134   -0.9446    0.0000 O   0  0  0
    1.8719   -2.4841    0.0000 C   0  0  0
    2.6969   -1.0552    0.0000 C   0  0  0
    6.5712   -0.9446    0.0000 C   0  0  0
    7.2857   -0.5321    0.0000 C   0  0  0
    4.4278   -5.4821    0.0000 N   0  0  0
    4.4278   -4.6571    0.0000 C   0  0  0
    5.1423   -4.2446    0.0000 O   0  0  0
    3.7134   -6.7196    0.0000 O   0  0  0
    3.7134   -5.8946    0.0000 C   0  0  0
    2.9989   -5.4821    0.0000 C   0  0  0
    2.9989   -4.6571    0.0000 C   0  0  0
    8.7147    0.2929    0.0000 S   0  0  0
    8.7147    1.1179    0.0000 C   0  0  0
    9.5397    0.2929    0.0000 O   0  0  0
    7.8897    0.2929    0.0000 O   0  0  0
  1  2  1
  2 21  1
  3  2  1
  3 18  1
  4  3  2
  4  5  1
  5  7  2
  6  5  1
  6 26  1
  8  9  1
  8  7  1
  9 17  2
 10  9  1
 10 11  2
 11 23  1
 12 13  1
 12 14  1
 13 32  1
 15 14  2
 16 15  1
 17 16  1
 18  8  2
 20 19  1
 20 18  1
 22  2  1
 23 16  2
 23 24  1
 24 12  2
 25 26  1
 26 27  2
 28 29  2
 29 30  1
 29 25  1
 30 31  2
 31  6  1
 32 33  1
 32 34  2
 32 35  2
M  END
> <molLogP>
4.643693

> <molLogS>
-9.746281

> <drugLikeness>
-0.917053

> <chembl_id>
CHEMBL3137312

> <chembl_pref_name>
DASABUVIR

$$$$
C25H34N2O3
  MOLSOFT 04262021142D

 30 32  0  0  0  0  0  0  0  0999 V2000
   20.8317  -22.1331    0.0000 C   0  0  0
   20.8305  -22.9604    0.0000 C   0  0  0
   21.5453  -23.3733    0.0000 C   0  0  0
   21.5435  -21.7203    0.0000 C   0  0  0
   22.2589  -22.1294    0.0000 C   0  0  0
   22.2591  -22.9605    0.0000 C   0  0  0
   23.0492  -21.8725    0.0000 C   0  0  0
   23.5379  -22.5445    0.0000 C   0  0  0
   23.0491  -23.2136    0.0000 C   0  0  0
   23.3843  -23.9693    0.0000 C   0  0  0
   24.2080  -24.0572    0.0000 C   0  0  0
   24.6954  -23.3833    0.0000 C   0  0  0
   24.3576  -22.6302    0.0000 C   0  0  0
   20.1171  -21.7208    0.0000 O   0  0  0
   25.5161  -23.4675    0.0000 O   0  0  0
   25.8535  -24.2203    0.0000 C   0  0  0
   26.6742  -24.3045    0.0000 C   0  0  0
   23.3038  -21.0878    0.0000 O   0  0  0
   19.4027  -22.1334    0.0000 C   0  0  0
   18.6882  -21.7211    0.0000 C   0  0  0
   17.9738  -22.1338    0.0000 N   0  0  0
   27.0117  -25.0573    0.0000 N   0  0  0
   27.8323  -25.1415    0.0000 C   0  0  0
   28.1697  -25.8943    0.0000 C   0  0  0
   26.5284  -25.7259    0.0000 C   0  0  0
   25.7078  -25.6417    0.0000 C   0  0  0
   17.9740  -22.9588    0.0000 C   0  0  0
   17.2593  -21.7215    0.0000 C   0  0  0
   17.2591  -20.8965    0.0000 C   0  0  0
   18.6886  -23.3711    0.0000 C   0  0  0
  1  2  2
  2  3  1
  3  6  2
  5  4  2
  4  1  1
  5  6  1
  6  9  1
  8  7  1
  7  5  1
  8  9  2
  9 10  1
 10 11  2
 11 12  1
 12 13  2
 13  8  1
  1 14  1
 12 15  1
 15 16  1
 16 17  1
  7 18  2
 14 19  1
 19 20  1
 20 21  1
 17 22  1
 22 23  1
 23 24  1
 22 25  1
 25 26  1
 21 27  1
 21 28  1
 28 29  1
 27 30  1
M  END
> <molLogP>
5.213289

> <molLogS>
-5.540306

> <drugLikeness>
-0.208333

> <chembl_id>
CHEMBL47298

> <chembl_pref_name>
TILORONE

$$$$
C9H11IN2O5
  MOLSOFT 04262021142D

 17 18  0  0  1  0  0  0  0  0999 V2000
    0.0479   -1.1497    0.0000 C   0  0  0
    1.3533   -1.7309    0.0000 C   0  0  0
    1.6889   -0.9772    0.0000 C   0  0  0
    1.2040   -0.3098    0.0000 C   0  0  0
   -0.7725   -1.2359    0.0000 O   0  0  0
   -1.2284    2.7785    0.0000 O   0  0  0
   -0.5139    2.3660    0.0000 C   0  0  0
   -0.5139    1.5410    0.0000 C   0  0  1
    0.1535    1.0561    0.0000 O   0  0  0
   -0.1014    0.2714    0.0000 C   0  0  1
    0.3835   -0.3960    0.0000 N   0  0  0
    0.5329   -1.8171    0.0000 N   0  0  0
    1.8383   -2.3983    0.0000 O   0  0  0
    2.5094   -0.8910    0.0000 I   0  0  0
   -0.9264    0.2714    0.0000 C   0  0  0
   -1.1814    1.0561    0.0000 C   0  0  2
   -1.9660    1.3110    0.0000 O   0  0  0
  1  5  2
  1 11  1
  1 12  1
  2  3  1
  2 12  1
  2 13  2
  3  4  2
  3 14  1
  4 11  1
  7  6  1
  8  7  1  1
  8  9  1
 16  8  1
 10  9  1
 10 11  1  1
 10 15  1
 16 15  1
 16 17  1  6
M  END
> <molLogP>
-0.873908

> <molLogS>
-2.920417

> <drugLikeness>
1.030183

> <chembl_id>
CHEMBL788

> <chembl_pref_name>
IDOXURIDINE

$$$$
C8H14N3O6P
  MOLSOFT 04262021142D

 18 18  0  0  1  0  0  0  0  0999 V2000
   12.9365  -17.9156    0.0000 N   0  0  0
   13.6491  -18.3267    0.0000 C   0  0  0
   14.3617  -17.9156    0.0000 N   0  0  0
   17.9293  -18.3267    0.0000 P   0  0  0
   12.9365  -17.0933    0.0000 C   0  0  0
   13.6491  -16.6685    0.0000 C   0  0  0
   14.3617  -17.0933    0.0000 C   0  0  0
   17.2167  -17.9110    0.0000 C   0  0  0
   15.0743  -18.3267    0.0000 C   0  0  0
   13.6491  -19.1489    0.0000 O   0  0  0
   18.3358  -19.0393    0.0000 O   0  0  0
   16.5041  -18.3267    0.0000 O   0  0  0
   17.5136  -19.0393    0.0000 O   0  0  0
   18.6419  -17.9156    0.0000 O   0  0  0
   15.7915  -17.9156    0.0000 C   0  0  2
   12.2239  -16.6822    0.0000 N   0  0  0
   16.5041  -16.6776    0.0000 O   0  0  0
   15.7915  -17.0933    0.0000 C   0  0  0
  2  1  1
  3  2  1
  4  8  1
  5  1  2
  6  5  1
  7  6  2
  8 12  1
  9  3  1
 10  2  2
 11  4  2
 15 12  1
 13  4  1
 14  4  1
 15  9  1
 16  5  1
 17 18  1
 15 18  1  1
  3  7  1
M  END
> <molLogP>
-4.611795

> <molLogS>
0.353033

> <drugLikeness>
0.224272

> <chembl_id>
CHEMBL152

> <chembl_pref_name>
CIDOFOVIR

$$$$
C10H12N2O4
  MOLSOFT 04262021142D

 16 17  0  0  1  0  0  0  0  0999 V2000
    1.2990   -0.7500    0.0000 N   0  0  0
    1.2990    0.7500    0.0000 C   0  0  0
    0.0000    1.5000    0.0000 N   0  0  0
    0.0000   -1.5000    0.0000 C   0  0  0
   -1.2990   -0.7500    0.0000 C   0  0  0
   -1.2990    0.7500    0.0000 C   0  0  0
    2.5987   -1.5004    0.0000 C   0  0  2
    3.9511   -0.8815    0.0000 O   0  0  0
    2.7343   -2.9815    0.0000 C   0  0  0
    2.3383    1.3500    0.0000 O   0  0  0
    4.2010   -3.2956    0.0000 C   0  0  0
   -2.3383    1.3500    0.0000 O   0  0  0
    4.9531   -1.9978    0.0000 C   0  0  1
   -2.3383   -1.3500    0.0000 C   0  0  0
    6.9313   -0.7443    0.0000 O   0  0  0
    6.4430   -1.8405    0.0000 C   0  0  0
  2  1  1
  3  2  1
  4  1  1
  5  4  2
  6  5  1
  7  1  1  6
  7  8  1
  7  9  1
 10  2  2
 11  9  2
 12  6  2
 13  8  1
 14  5  1
 15 16  1
 13 16  1  6
 13 11  1
  3  6  1
M  END
> <molLogP>
-0.734363

> <molLogS>
-1.796369

> <drugLikeness>
0.590708

> <chembl_id>
CHEMBL991

> <chembl_pref_name>
STAVUDINE

$$$$
C16H28N2O4
  MOLSOFT 04262021142D

 22 22  0  0  1  0  0  0  0  0999 V2000
    2.8425   -3.2926    0.0000 O   0  0  0
    4.9951   -1.2375    0.0000 O   0  0  0
    4.2750    0.0000    0.0000 O   0  0  0
    0.7050   -1.2300    0.0000 O   0  0  0
    1.4250   -2.4675    0.0000 N   0  0  0
    1.4250   -0.8100    0.0000 N   0  0  0
    2.1450   -2.0550    0.0000 C   0  0  1
    2.8650   -2.4751    0.0000 C   0  0  1
    2.1450   -1.2300    0.0000 C   0  0  2
    3.5626   -1.2300    0.0000 C   0  0  0
    3.5626   -2.0550    0.0000 C   0  0  0
    2.8650   -0.8250    0.0000 C   0  0  0
    4.2750   -0.8250    0.0000 C   0  0  0
    2.1450   -3.6975    0.0000 C   0  0  0
    0.7050   -2.0550    0.0000 C   0  0  0
    2.1450   -4.5301    0.0000 C   0  0  0
    1.4250   -3.2850    0.0000 C   0  0  0
    5.7151   -0.8250    0.0000 C   0  0  0
    0.0000   -2.4675    0.0000 C   0  0  0
    1.4175   -4.9276    0.0000 C   0  0  0
    0.7050   -3.6900    0.0000 C   0  0  0
    6.4201   -1.2375    0.0000 C   0  0  0
  8  1  1  1
  1 14  1
  2 13  1
  2 18  1
  3 13  2
  4 15  2
  7  5  1  6
  5 15  1
  9  6  1  1
  7  8  1
  7  9  1
  8 11  1
  9 12  1
 10 11  2
 10 12  1
 10 13  1
 14 16  1
 14 17  1
 15 19  1
 16 20  1
 17 21  1
 18 22  1
M  END
> <molLogP>
1.439182

> <molLogS>
-1.773315

> <drugLikeness>
0.823681

> <chembl_id>
CHEMBL1229

> <chembl_pref_name>
OSELTAMIVIR

$$$$
C14H19N5O4
  MOLSOFT 04262021142D

 23 24  0  0  0  0  0  0  0  0999 V2000
   12.1574  -13.5500    0.0000 C   0  0  0
   11.7451  -14.2600    0.0000 N   0  0  0
   13.0186  -13.2476    0.0000 N   0  0  0
   12.2261  -12.1711    0.0000 N   0  0  0
   11.7451  -12.8445    0.0000 C   0  0  0
   13.0094  -12.4231    0.0000 C   0  0  0
   10.9343  -14.2600    0.0000 C   0  0  0
   10.5220  -13.5500    0.0000 N   0  0  0
   10.9298  -12.8445    0.0000 C   0  0  0
   17.3108  -13.2339    0.0000 C   0  0  0
   15.8678  -15.7350    0.0000 C   0  0  0
   13.7332  -13.6599    0.0000 C   0  0  0
   17.3063  -12.4094    0.0000 O   0  0  0
   15.1532  -16.1473    0.0000 O   0  0  0
   15.8678  -14.9105    0.0000 O   0  0  0
   16.5962  -13.6553    0.0000 O   0  0  0
   10.5175  -14.9792    0.0000 N   0  0  0
   15.1670  -13.6599    0.0000 C   0  0  0
   14.4478  -13.2476    0.0000 C   0  0  0
   15.1624  -14.4936    0.0000 C   0  0  0
   15.8771  -13.2476    0.0000 C   0  0  0
   16.5824  -16.1473    0.0000 C   0  0  0
   18.0346  -13.6462    0.0000 C   0  0  0
  2  1  1
  3  1  1
  4  5  1
  5  1  2
  6  3  1
  7  2  2
  8  9  2
  9  5  1
 10 16  1
 11 15  1
 12  3  1
 13 10  2
 14 11  2
 15 20  1
 16 21  1
 17  7  1
 18 19  1
 19 12  1
 20 18  1
 21 18  1
 22 11  1
 23 10  1
  4  6  2
  7  8  1
M  END
> <molLogP>
0.601998

> <molLogS>
-2.154185

> <drugLikeness>
1.130407

> <chembl_id>
CHEMBL880

> <chembl_pref_name>
FAMCICLOVIR

$$$$
C20H21FN6O5
  MOLSOFT 04262021142D

 32 34  0  0  0  0  0  0  0  0999 V2000
   -0.3437  -15.7342    0.0000 N   0  0  0
   -0.3437  -16.5637    0.0000 C   0  0  0
    0.3707  -16.9762    0.0000 N   0  0  0
    1.0897  -16.5637    0.0000 C   0  0  0
    1.0897  -15.7342    0.0000 C   0  0  0
    0.3707  -15.3171    0.0000 C   0  0  0
    1.8036  -16.9772    0.0000 C   0  0  0
    1.8025  -17.8021    0.0000 O   0  0  0
    2.5186  -16.5657    0.0000 N   0  0  0
    3.2325  -16.9791    0.0000 C   0  0  0
    1.8046  -15.3224    0.0000 O   0  0  0
    0.3696  -14.4921    0.0000 O   0  0  0
   -1.0592  -15.3234    0.0000 C   0  0  0
   -1.0582  -16.9762    0.0000 C   0  0  0
   -1.7737  -17.3795    0.0000 N   0  0  0
   -0.6494  -17.6928    0.0000 C   0  0  0
   -1.4702  -16.2614    0.0000 C   0  0  0
   -2.4838  -16.9597    0.0000 C   0  0  0
   -2.4754  -16.1348    0.0000 O   0  0  0
   -3.2026  -17.3648    0.0000 C   0  0  0
    3.9476  -16.5676    0.0000 C   0  0  0
    4.6573  -16.9834    0.0000 C   0  0  0
    5.3717  -16.5726    0.0000 C   0  0  0
    5.3734  -15.7467    0.0000 C   0  0  0
    4.6544  -15.3334    0.0000 C   0  0  0
    3.9428  -15.7466    0.0000 C   0  0  0
    6.0878  -15.3342    0.0000 F   0  0  0
   -3.9554  -17.0192    0.0000 N   0  0  0
   -4.5137  -17.6266    0.0000 N   0  0  0
   -4.1085  -18.3453    0.0000 C   0  0  0
   -3.2999  -18.1820    0.0000 O   0  0  0
   -4.4518  -19.0955    0.0000 C   0  0  0
 14 16  1
 14 17  1
  7  8  2
 15 18  1
  1  2  1
 18 19  2
  7  9  1
 18 20  1
  1  6  1
 10 21  1
  9 10  1
 21 22  2
  2  3  2
 22 23  1
  5 11  1
 23 24  2
  3  4  1
 24 25  1
  6 12  2
 25 26  2
 26 21  1
  4  5  2
 24 27  1
 20 28  2
  1 13  1
  5  6  1
  2 14  1
 28 29  1
 29 30  2
 30 31  1
 31 20  1
 14 15  1
 30 32  1
  4  7  1
M  END
> <molLogP>
-0.343801

> <molLogS>
-3.946101

> <drugLikeness>
0.662507

> <chembl_id>
CHEMBL254316

> <chembl_pref_name>
RALTEGRAVIR

$$$$
C10H12N4O3
  MOLSOFT 04262021142D

 17 19  0  0  1  0  0  0  0  0999 V2000
   -0.4096   -0.3100    0.0000 N   0  0  0
    0.3750   -0.5649    0.0000 C   0  0  0
    1.0895   -0.1524    0.0000 N   0  0  0
    1.8040   -0.5649    0.0000 C   0  0  0
    1.8040   -1.3899    0.0000 N   0  0  0
    1.0895   -1.8024    0.0000 C   0  0  0
    1.0895   -2.6274    0.0000 O   0  0  0
    0.3750   -1.3899    0.0000 C   0  0  0
   -0.4096   -1.6448    0.0000 N   0  0  0
   -0.8945   -0.9774    0.0000 C   0  0  0
   -0.4096    2.5942    0.0000 C   0  0  0
   -0.9616    3.2073    0.0000 O   0  0  0
   -0.6645    1.8095    0.0000 C   0  0  1
   -0.1796    1.1421    0.0000 O   0  0  0
   -0.6645    0.4747    0.0000 C   0  0  2
   -1.4492    0.7296    0.0000 C   0  0  0
   -1.4492    1.5546    0.0000 C   0  0  0
  2  1  1
 10  1  1
 15  1  1  1
  2  3  1
  2  8  2
  4  3  2
  4  5  1
  6  5  1
  6  7  2
  8  6  1
  8  9  1
 10  9  2
 11 12  1
 13 11  1  1
 13 14  1
 13 17  1
 15 14  1
 15 16  1
 16 17  1
M  END
> <molLogP>
-0.822672

> <molLogS>
-2.437849

> <drugLikeness>
1.216706

> <chembl_id>
CHEMBL1460

> <chembl_pref_name>
DIDANOSINE

$$$$
C10H15N5O3
  MOLSOFT 04262021142D

 18 19  0  0  0  0  0  0  0  0999 V2000
    3.0250   -5.4292    0.0000 C   0  0  0
    3.0208   -4.6042    0.0000 C   0  0  0
    2.3083   -5.8417    0.0000 N   0  0  0
    3.8042   -4.3417    0.0000 N   0  0  0
    1.5958   -4.6042    0.0000 N   0  0  0
    3.8125   -5.6792    0.0000 N   0  0  0
    2.3083   -4.1875    0.0000 C   0  0  0
    1.5958   -5.4250    0.0000 C   0  0  0
    4.2958   -5.0083    0.0000 C   0  0  0
    3.8042   -6.5042    0.0000 C   0  0  0
    0.8792   -5.8375    0.0000 N   0  0  0
    2.3083   -3.3667    0.0000 O   0  0  0
    4.5125   -6.9208    0.0000 C   0  0  0
    5.2333   -6.5167    0.0000 C   0  0  0
    5.9625   -5.2833    0.0000 O   0  0  0
    6.6583   -6.5333    0.0000 O   0  0  0
    5.2417   -5.6917    0.0000 C   0  0  0
    5.9417   -6.9333    0.0000 C   0  0  0
  2  1  2
  3  1  1
  4  2  1
  5  8  1
  6  1  1
  7  2  1
  8  3  2
  9  6  1
 10  6  1
 11  8  1
 12  7  1
 13 10  1
 14 13  1
 15 17  1
 16 18  1
 17 14  1
 18 14  1
  4  9  2
  7  5  2
M  END
> <molLogP>
-0.656767

> <molLogS>
-1.409918

> <drugLikeness>
0.789726

> <chembl_id>
CHEMBL1540

> <chembl_pref_name>
PENCICLOVIR

$$$$
C9H13N3O3
  MOLSOFT 04262021142D

 15 16  0  0  1  0  0  0  0  0999 V2000
    1.2990   -0.7500    0.0000 C   0  0  0
    1.2990    0.7500    0.0000 N   0  0  0
    0.0000    1.5000    0.0000 C   0  0  0
   -1.2990    0.7500    0.0000 N   0  0  0
    0.0000   -1.5000    0.0000 C   0  0  0
   -1.2990   -0.7500    0.0000 C   0  0  0
    0.0000    2.7000    0.0000 O   0  0  0
    2.5987    1.5004    0.0000 C   0  0  2
    3.9511    0.8815    0.0000 O   0  0  0
    4.9530    1.9978    0.0000 C   0  0  1
    4.2010    3.2957    0.0000 C   0  0  0
    2.7342    2.9815    0.0000 C   0  0  0
    6.4430    1.8405    0.0000 C   0  0  0
    6.9313    0.7443    0.0000 O   0  0  0
   -2.3383   -1.3500    0.0000 N   0  0  0
  8  2  1  1
  8  9  1
  3  4  1
  4  6  2
  5  6  1
  1  2  1
 10  9  1
 10 11  1
 11 12  1
  8 12  1
  5  1  2
 10 13  1  1
  2  3  1
 13 14  1
  3  7  2
  6 15  1
M  END
> <molLogP>
-1.07108

> <molLogS>
-1.562499

> <drugLikeness>
0.923363

> <chembl_id>
CHEMBL853

> <chembl_pref_name>
ZALCITABINE

$$$$
C9H13N5O4
  MOLSOFT 04262021142D

 18 19  0  0  0  0  0  0  0  0999 V2000
   -0.5250   -3.2875    0.0000 C   0  0  0
   -0.5292   -2.5792    0.0000 C   0  0  0
   -1.1458   -3.6458    0.0000 N   0  0  0
    0.1458   -3.5000    0.0000 N   0  0  0
    0.1417   -2.3500    0.0000 N   0  0  0
   -1.7625   -2.5792    0.0000 N   0  0  0
   -1.7625   -3.2875    0.0000 C   0  0  0
   -1.1458   -2.2167    0.0000 C   0  0  0
    0.5625   -2.9250    0.0000 C   0  0  0
    0.1417   -4.2125    0.0000 C   0  0  0
   -1.1458   -1.5083    0.0000 O   0  0  0
   -2.3792   -3.6417    0.0000 N   0  0  0
    0.7542   -4.5750    0.0000 O   0  0  0
    0.7458   -5.2875    0.0000 C   0  0  0
    1.9792   -5.3042    0.0000 O   0  0  0
   -0.4875   -5.2750    0.0000 O   0  0  0
    0.1250   -5.6333    0.0000 C   0  0  0
    1.3583   -5.6500    0.0000 C   0  0  0
  2  1  2
  3  1  1
  4  1  1
  5  2  1
  6  8  2
  7  3  2
  8  2  1
  9  4  1
 10  4  1
 11  8  1
 12  7  1
 13 10  1
 14 13  1
 15 18  1
 16 17  1
 17 14  1
 18 14  1
  5  9  2
  7  6  1
M  END
> <molLogP>
-1.580138

> <molLogS>
-1.408244

> <drugLikeness>
0.685136

> <chembl_id>
CHEMBL182

> <chembl_pref_name>
GANCICLOVIR

$$$$
C8H11N3O3S
  MOLSOFT 04262021142D

 15 16  0  0  1  0  0  0  0  0999 V2000
   10.0272   -1.2655    0.0000 C   0  0  0
    9.3115   -0.8539    0.0000 N   0  0  0
    9.3109   -0.0295    0.0000 C   0  0  0
   10.0259    0.3833    0.0000 C   0  0  0
   10.7416   -0.0283    0.0000 C   0  0  0
   10.7381   -0.8527    0.0000 N   0  0  0
   10.0279   -2.0899    0.0000 O   0  0  0
   12.2073   -0.9264    0.0000 O   0  0  0
   12.7605   -1.5420    0.0000 C   0  0  2
   12.3489   -2.2535    0.0000 S   0  0  0
   11.5391   -2.0819    0.0000 C   0  0  0
   11.4538   -1.2644    0.0000 C   0  0  1
   13.5780   -1.4523    0.0000 C   0  0  0
   14.0629   -2.1212    0.0000 O   0  0  0
    8.5994    0.3822    0.0000 N   0  0  0
  1  2  1
  2  3  2
  3  4  1
  4  5  2
  5  6  1
  1  6  1
  1  7  2
  9  8  1
  9 10  1
 10 11  1
 12 11  1
 12  8  1
 13 14  1
  9 13  1  1
 12  6  1  1
  3 15  1
M  END
> <molLogP>
-1.049577

> <molLogS>
-2.000125

> <drugLikeness>
0.987862

> <chembl_id>
CHEMBL141

> <chembl_pref_name>
LAMIVUDINE

$$$$
C13H20N6O4
  MOLSOFT 04262021142D

 23 24  0  0  1  0  0  0  0  0999 V2000
    3.0716   -5.5124    0.0000 C   0  0  0
    3.0716   -4.6681    0.0000 C   0  0  0
    2.3534   -5.9345    0.0000 N   0  0  0
    3.8868   -5.7599    0.0000 N   0  0  0
    1.6304   -4.6681    0.0000 N   0  0  0
    3.9014   -4.4206    0.0000 N   0  0  0
    2.3534   -4.2313    0.0000 C   0  0  0
    1.6304   -5.4978    0.0000 C   0  0  0
    4.3527   -5.0902    0.0000 C   0  0  0
    7.4825   -6.9681    0.0000 C   0  0  0
    8.2006   -6.5605    0.0000 C   0  0  1
    2.3534   -3.4307    0.0000 O   0  0  0
    3.8868   -6.5605    0.0000 C   0  0  0
    7.4825   -7.7833    0.0000 O   0  0  0
    0.9317   -5.9054    0.0000 N   0  0  0
    8.2006   -5.7355    0.0000 N   0  0  0
    8.9139   -6.9729    0.0000 C   0  0  0
    6.7692   -6.5605    0.0000 O   0  0  0
    4.6147   -6.9681    0.0000 O   0  0  0
    6.0413   -6.9681    0.0000 C   0  0  0
    8.9139   -7.7979    0.0000 C   0  0  0
    9.6273   -6.5605    0.0000 C   0  0  0
    5.3280   -6.5605    0.0000 C   0  0  0
  2  1  2
  3  1  1
  4  1  1
  5  8  2
  6  2  1
  7  2  1
  8  3  1
  9  4  1
 10 18  1
 11 10  1
 12  7  2
 13  4  1
 14 10  2
 15  8  1
 11 16  1  1
 11 17  1
 18 20  1
 19 13  1
 20 23  1
 21 17  1
 22 17  1
 23 19  1
  6  9  2
  7  5  1
M  END
> <molLogP>
-2.010893

> <molLogS>
-2.894184

> <drugLikeness>
0.870509

> <chembl_id>
CHEMBL1349

> <chembl_pref_name>
VALACYCLOVIR

$$$$
C8H12N4O5
  MOLSOFT 04262021142D

 17 18  0  0  1  0  0  0  0  0999 V2000
    0.4081   -5.6297    0.0000 N   0  0  0
   -1.0463   -5.4027    0.0000 O   0  0  0
   -1.7098   -5.8882    0.0000 C   0  0  1
   -1.4541   -6.6721    0.0000 C   0  0  2
   -0.6290   -6.6723    0.0000 C   0  0  2
   -0.3740   -5.8878    0.0000 C   0  0  2
   -1.9391   -7.3395    0.0000 O   0  0  0
   -2.4210   -5.4700    0.0000 C   0  0  0
   -2.4144   -4.6450    0.0000 O   0  0  0
    1.0771   -6.1104    0.0000 N   0  0  0
    1.7405   -5.6240    0.0000 C   0  0  0
    1.4831   -4.8412    0.0000 N   0  0  0
    0.6596   -4.8451    0.0000 C   0  0  0
    2.4578   -6.0317    0.0000 C   0  0  0
    2.4633   -6.8567    0.0000 O   0  0  0
    3.1695   -5.6144    0.0000 N   0  0  0
   -0.1442   -7.3399    0.0000 O   0  0  0
  3  4  1
  8  9  1
  1 10  1
  4  5  1
  5  6  1
  6  2  1
  6  1  1  1
 10 11  2
 11 12  1
 12 13  2
 13  1  1
 11 14  1
  4  7  1  6
 14 15  2
  3  2  1
 14 16  1
  3  8  1  1
  5 17  1  6
M  END
> <molLogP>
-3.273636

> <molLogS>
-0.965938

> <drugLikeness>
1.183598

> <chembl_id>
CHEMBL1643

> <chembl_pref_name>
RIBAVIRIN

$$$$
C6H13N5O
  MOLSOFT 04262021142D

 12 12  0  0  0  0  0  0  0  0999 V2000
    2.9538   -2.0969    0.0000 O   0  0  0
    2.9538   -0.4469    0.0000 N   0  0  0
    3.6682    0.7906    0.0000 N   0  0  0
    2.2393    0.7906    0.0000 N   0  0  0
    2.9538    2.0281    0.0000 N   0  0  0
    4.3827    2.0281    0.0000 N   0  0  0
    2.9538    0.3781    0.0000 C   0  0  0
    2.2393   -0.8594    0.0000 C   0  0  0
    3.6682   -0.8594    0.0000 C   0  0  0
    3.6682    1.6156    0.0000 C   0  0  0
    2.2393   -1.6844    0.0000 C   0  0  0
    3.6682   -1.6844    0.0000 C   0  0  0
  1 11  1
  1 12  1
  2  7  1
  2  8  1
  2  9  1
  3  7  2
  3 10  1
  4  7  1
  5 10  2
 10  6  1
  8 11  1
  9 12  1
M  END
> <molLogP>
-1.993901

> <molLogS>
-0.932555

> <drugLikeness>
-0.145865

> <chembl_id>
CHEMBL1490434

> <chembl_pref_name>
MOROXYDINE

$$$$
C22H28N6O3S
  MOLSOFT 04262021142D

 32 35  0  0  0  0  0  0  0  0999 V2000
   -5.2558  -20.9741    0.0000 C   0  0  0
   -4.5481  -20.5567    0.0000 S   0  0  0
   -4.1306  -21.2644    0.0000 O   0  0  0
   -4.9676  -19.8453    0.0000 O   0  0  0
   -3.8367  -20.1371    0.0000 N   0  0  0
   -0.8984  -21.6003    0.0000 N   0  0  0
   -0.4184  -20.9268    0.0000 C   0  0  0
   -0.9108  -20.2663    0.0000 C   0  0  0
   -1.6931  -20.5284    0.0000 C   0  0  0
   -2.4092  -20.1230    0.0000 C   0  0  0
   -3.1206  -20.5425    0.0000 C   0  0  0
   -3.1122  -21.3654    0.0000 C   0  0  0
   -2.3940  -21.7744    0.0000 C   0  0  0
   -1.6827  -21.3549    0.0000 C   0  0  0
    0.4066  -20.9220    0.0000 C   0  0  0
    0.8240  -21.6298    0.0000 O   0  0  0
    0.8099  -20.2024    0.0000 N   0  0  0
    1.6348  -20.1976    0.0000 C   0  0  0
    2.0417  -19.4758    0.0000 C   0  0  0
    1.6243  -18.7680    0.0000 N   0  0  0
    0.7957  -18.7749    0.0000 C   0  0  0
    0.3924  -19.4945    0.0000 C   0  0  0
    2.0276  -18.0483    0.0000 C   0  0  0
    2.8526  -18.0435    0.0000 C   0  0  0
    3.2558  -17.3238    0.0000 C   0  0  0
    2.8384  -16.6161    0.0000 C   0  0  0
    2.0134  -16.6208    0.0000 C   0  0  0
    1.6101  -17.3406    0.0000 N   0  0  0
    3.2700  -18.7513    0.0000 N   0  0  0
    4.5124  -19.4543    0.0000 C   0  0  0
    4.0950  -18.7465    0.0000 C   0  0  0
    4.4983  -18.0269    0.0000 C   0  0  0
  2  3  2
  2  4  2
  2  5  1
  1  2  1
  6  7  1
  7  8  2
  8  9  1
  9 10  1
 10 11  2
 11 12  1
 12 13  2
 13 14  1
  6 14  1
  9 14  2
 15 16  2
 17 18  1
 18 19  1
 19 20  1
 20 21  1
 21 22  1
 17 22  1
 23 24  1
 24 25  2
 25 26  1
 26 27  2
 27 28  1
 23 28  2
 30 31  1
 31 32  1
 29 31  1
 24 29  1
 20 23  1
 15 17  1
  7 15  1
  5 11  1
M  END
> <molLogP>
2.056559

> <molLogS>
-6.147493

> <drugLikeness>
0.488071

> <chembl_id>
CHEMBL593

> <chembl_pref_name>
DELAVIRDINE

$$$$
C12H15N5O3
  MOLSOFT 04262021142D

 20 22  0  0  1  0  0  0  0  0999 V2000
    6.8123  -25.1802    0.0000 N   0  0  0
    7.3007  -25.8428    0.0000 C   0  0  0
    6.8148  -26.5138    0.0000 N   0  0  0
    6.0303  -26.2588    0.0000 C   0  0  0
    5.3169  -26.6720    0.0000 N   0  0  0
    4.6002  -26.2607    0.0000 C   0  0  0
    4.6009  -25.4343    0.0000 N   0  0  0
    5.3190  -25.0211    0.0000 C   0  0  0
    6.0299  -25.4352    0.0000 C   0  0  0
    5.3186  -24.1973    0.0000 O   0  0  0
    7.1074  -27.2841    0.0000 C   0  0  2
    7.8901  -27.5448    0.0000 C   0  0  0
    7.8923  -28.3721    0.0000 C   0  0  1
    7.1128  -28.6189    0.0000 C   0  0  2
    6.6260  -27.9552    0.0000 C   0  0  0
    8.5618  -27.0561    0.0000 C   0  0  0
    8.5588  -28.8627    0.0000 C   0  0  0
    9.3198  -28.5271    0.0000 O   0  0  0
    6.8567  -29.4152    0.0000 O   0  0  0
    3.8777  -26.6740    0.0000 N   0  0  0
  1  2  2
  2  3  1
  3  4  1
  4  5  1
  5  6  2
  6  7  1
  7  8  1
  8  9  1
  1  9  1
  4  9  2
  8 10  2
 11 12  1
 13 12  1
 13 14  1
 14 15  1
 11 15  1
 12 16  2
 17 18  1
 13 17  1  6
 14 19  1  1
 11  3  1  6
  6 20  1
M  END
> <molLogP>
-0.827896

> <molLogS>
-3.30605

> <drugLikeness>
1.04458

> <chembl_id>
CHEMBL713

> <chembl_pref_name>
ENTECAVIR

$$$$
C10H13FN2O5
  MOLSOFT 04262021142D

 18 19  0  0  1  0  0  0  0  0999 V2000
   -0.7723   -1.1972    0.0000 O   0  0  0
   -1.2547   -0.5307    0.0000 C   0  0  2
   -2.0759   -0.5307    0.0000 C   0  0  2
   -1.0106    0.2530    0.0000 C   0  0  1
   -2.3287    0.2703    0.0000 C   0  0  2
   -1.6815    0.7442    0.0000 O   0  0  0
   -0.2252    0.5055    0.0000 C   0  0  0
    0.2745   -0.1424    0.0000 O   0  0  0
   -3.1178    0.5327    0.0000 N   0  0  0
   -2.5617   -1.1935    0.0000 F   0  0  0
   -3.1215    1.3684    0.0000 C   0  0  0
   -3.8383    1.7824    0.0000 N   0  0  0
   -4.5598    1.3687    0.0000 C   0  0  0
   -4.5600    0.5363    0.0000 C   0  0  0
   -3.8386    0.1177    0.0000 C   0  0  0
   -2.4107    1.7808    0.0000 O   0  0  0
   -5.2709    1.7807    0.0000 O   0  0  0
   -5.2722    0.1262    0.0000 C   0  0  0
  5  9  1  1
  3 10  1  1
  9 11  1
  2  3  1
  2  4  1
  3  5  1
  4  6  1
  5  6  1
  9 15  1
 11 12  1
 12 13  1
 13 14  1
 14 15  2
  2  1  1  6
 11 16  2
  7  8  1
 13 17  2
  4  7  1  1
 14 18  1
M  END
> <molLogP>
-1.331326

> <molLogS>
-1.672736

> <drugLikeness>
0.695186

> <chembl_id>
CHEMBL458875

> <chembl_pref_name>
CLEVUDINE

$$$$
C15H19Cl2N3O4
  MOLSOFT 04262021142D

 24 26  0  0  1  0  0  0  0  0999 V2000
   -4.2317  -24.0194    0.0000 C   0  0  0
   -4.2329  -24.8469    0.0000 C   0  0  0
   -3.5201  -25.2598    0.0000 C   0  0  0
   -3.5220  -23.6066    0.0000 C   0  0  0
   -2.8039  -24.0154    0.0000 C   0  0  0
   -2.7987  -24.8469    0.0000 C   0  0  0
   -2.0064  -25.0990    0.0000 N   0  0  0
   -1.5216  -24.4232    0.0000 C   0  0  0
   -2.0147  -23.7536    0.0000 N   0  0  0
   -4.9464  -23.6075    0.0000 Cl  0  0  0
   -4.9480  -25.2584    0.0000 Cl  0  0  0
   -0.6968  -24.4181    0.0000 N   0  0  0
   -0.2887  -23.7011    0.0000 C   0  0  0
    0.5362  -23.6960    0.0000 C   0  0  0
   -0.7057  -22.9893    0.0000 C   0  0  0
   -1.7466  -25.8819    0.0000 C   0  0  2
   -2.2260  -26.5538    0.0000 C   0  0  2
   -1.7371  -27.2181    0.0000 C   0  0  2
   -0.9541  -26.9583    0.0000 C   0  0  1
   -0.9592  -26.1335    0.0000 O   0  0  0
   -3.0510  -26.5597    0.0000 O   0  0  0
   -1.9871  -28.0042    0.0000 O   0  0  0
   -0.2837  -27.4391    0.0000 C   0  0  0
   -0.3647  -28.2600    0.0000 O   0  0  0
  8 12  1
  2  3  1
 12 13  1
  3  6  2
 13 14  1
  1  2  2
 13 15  1
  5  4  2
 16  7  1  1
 16 17  1
  6  7  1
  7  8  1
  8  9  2
  9  5  1
 17 18  1
 18 19  1
 19 20  1
 16 20  1
  4  1  1
 17 21  1  6
  1 10  1
 18 22  1  6
  5  6  1
 19 23  1  1
  2 11  1
 23 24  1
M  END
> <molLogP>
2.045569

> <molLogS>
-4.545527

> <drugLikeness>
0.322494

> <chembl_id>
CHEMBL515408

> <chembl_pref_name>
MARIBAVIR

$$$$
C10H13N5O4
  MOLSOFT 04262021142D

 19 21  0  0  1  0  0  0  0  0999 V2000
   -0.6749    3.0820    0.0000 O   0  0  0
   -0.1228    2.4689    0.0000 C   0  0  0
   -0.3778    1.6843    0.0000 C   0  0  1
    0.1072    1.0169    0.0000 O   0  0  0
   -0.3778    0.3494    0.0000 C   0  0  1
   -0.1228   -0.4352    0.0000 N   0  0  0
    0.6618   -0.6901    0.0000 C   0  0  0
    1.3763   -0.2776    0.0000 N   0  0  0
    2.0907   -0.6901    0.0000 C   0  0  0
    2.0907   -1.5151    0.0000 N   0  0  0
    1.3763   -1.9276    0.0000 C   0  0  0
    1.3763   -2.7526    0.0000 N   0  0  0
    0.6618   -1.5151    0.0000 C   0  0  0
   -0.1228   -1.7701    0.0000 N   0  0  0
   -0.6077   -1.1026    0.0000 C   0  0  0
   -1.1624    0.6044    0.0000 C   0  0  1
   -1.8298    0.1195    0.0000 O   0  0  0
   -1.1624    1.4294    0.0000 C   0  0  2
   -1.8298    1.9143    0.0000 O   0  0  0
  2  1  1
  3  2  1  1
  3  4  1
 18  3  1
  5  4  1
  5  6  1  1
  5 16  1
  7  6  1
 15  6  1
  7  8  2
  7 13  1
  9  8  1
  9 10  2
 11 10  1
 11 12  1
 13 11  2
 13 14  1
 15 14  2
 16 17  1  1
 16 18  1
 18 19  1  6
M  END
> <molLogP>
-2.457808

> <molLogS>
-2.364245

> <drugLikeness>
0.970221

> <chembl_id>
CHEMBL1090

> <chembl_pref_name>
VIDARABINE

$$$$
C14H22N6O5
  MOLSOFT 04262021142D

 25 26  0  0  1  0  0  0  0  0999 V2000
    1.4417   -2.5542    0.0000 C   0  0  0
    1.4417   -1.8375    0.0000 C   0  0  0
    0.8292   -2.9375    0.0000 N   0  0  0
    2.1333   -2.7750    0.0000 N   0  0  0
    0.2167   -1.8375    0.0000 N   0  0  0
    2.1500   -1.6250    0.0000 N   0  0  0
    0.8292   -1.4792    0.0000 C   0  0  0
    0.2167   -2.5542    0.0000 C   0  0  0
    2.5667   -2.2000    0.0000 C   0  0  0
    5.2167   -3.8250    0.0000 C   0  0  0
    2.1333   -3.4792    0.0000 C   0  0  0
    5.8292   -3.4792    0.0000 C   0  0  1
    0.8292   -0.7667    0.0000 O   0  0  0
    4.6000   -3.4792    0.0000 O   0  0  0
    5.2167   -4.5292    0.0000 O   0  0  0
   -0.3833   -2.9000    0.0000 N   0  0  0
    2.7417   -3.8417    0.0000 O   0  0  0
    3.3667   -3.4792    0.0000 C   0  0  3
    5.8458   -2.7708    0.0000 N   0  0  0
    3.9917   -3.8250    0.0000 C   0  0  0
    6.4458   -3.8542    0.0000 C   0  0  0
    3.9750   -2.4000    0.0000 O   0  0  0
    3.3667   -2.7625    0.0000 C   0  0  0
    6.4250   -4.5417    0.0000 C   0  0  0
    7.0458   -3.5250    0.0000 C   0  0  0
  2  1  2
  3  1  1
  4  1  1
  5  8  1
  6  2  1
  7  2  1
  8  3  2
  9  4  1
 10 14  1
 11  4  1
 12 10  1
 13  7  2
 14 20  1
 15 10  2
 16  8  1
 17 11  1
 18 17  1
 12 19  1  1
 18 20  1
 12 21  1
 22 23  1
 18 23  1
 24 21  1
 25 21  1
  6  9  2
  7  5  1
M  END
> <molLogP>
-2.660753

> <molLogS>
-2.660649

> <drugLikeness>
0.921107

> <chembl_id>
CHEMBL1201314

> <chembl_pref_name>
VALGANCICLOVIR

$$$$
C15H28N4O4
  MOLSOFT 04262021142D

 24 24  0  0  1  0  0  0  0  0999 V2000
   -0.6253   -0.3717    0.0000 C   0  0  1
   -1.1773    0.2414    0.0000 N   0  0  0
   -1.9843    0.0699    0.0000 C   0  0  0
   -2.5363    0.6830    0.0000 N   0  0  0
   -2.2392   -0.7147    0.0000 N   0  0  0
    0.1952   -0.2854    0.0000 C   0  0  2
    0.6077    0.4290    0.0000 C   0  0  2
    0.1952    1.1435    0.0000 C   0  0  0
    0.6077    1.8580    0.0000 C   0  0  0
    0.1952    2.5724    0.0000 C   0  0  0
   -0.6298    1.1435    0.0000 C   0  0  0
   -1.0423    1.8580    0.0000 C   0  0  0
    1.4327    0.4290    0.0000 N   0  0  0
    1.8452    1.1435    0.0000 C   0  0  0
    1.4327    1.8580    0.0000 C   0  0  0
    2.6702    1.1435    0.0000 O   0  0  0
    0.5307   -1.0391    0.0000 C   0  0  2
    1.3377   -1.2106    0.0000 O   0  0  0
   -0.0823   -1.5912    0.0000 C   0  0  1
    0.0039   -2.4116    0.0000 C   0  0  0
   -0.6636   -2.8966    0.0000 O   0  0  0
    0.7576   -2.7472    0.0000 O   0  0  0
   -0.7968   -1.1787    0.0000 C   0  0  0
   -0.3495    0.5533    0.0000 H   0  0  0
  1  2  1  1
  1  6  1
  1 23  1
  3  2  1
  3  4  2
  3  5  1
  6  7  1
  6 17  1
  7  8  1
  7 13  1  6
  8  9  1
  8 11  1
  9 10  1
 11 12  1
 14 13  1
 14 15  1
 14 16  2
 17 18  1  6
 17 19  1
 19 20  1  1
 19 23  1
 20 21  2
 20 22  1
  6 24  1  1
M  END
> <molLogP>
0.269142

> <molLogS>
-1.516706

> <drugLikeness>
0.912014

> <chembl_id>
CHEMBL139367

> <chembl_pref_name>
PERAMIVIR

$$$$
C20H15BrN6O
  MOLSOFT 04262021142D

 28 30  0  0  0  0  0  0  0  0999 V2000
    2.1911   -0.7835    0.0000 C   0  0  0
    2.1911    0.0415    0.0000 O   0  0  0
    2.9055   -1.1960    0.0000 C   0  0  0
    3.6200   -0.7835    0.0000 C   0  0  0
    2.9055   -2.0210    0.0000 C   0  0  0
    2.1911   -2.4335    0.0000 C   0  0  0
    1.4766   -2.0210    0.0000 C   0  0  0
    1.4766   -1.1960    0.0000 C   0  0  0
    0.7621   -0.7835    0.0000 C   0  0  0
    1.4766    0.4540    0.0000 C   0  0  0
    0.7621    0.0415    0.0000 N   0  0  0
    0.0476    0.4540    0.0000 C   0  0  0
   -0.6668    0.0415    0.0000 N   0  0  0
    0.0476    1.2790    0.0000 N   0  0  0
    0.7621    1.6915    0.0000 C   0  0  0
    0.7621    2.5165    0.0000 N   0  0  0
    1.4766    1.2790    0.0000 C   0  0  0
   -1.3813    0.4540    0.0000 C   0  0  0
   -2.0958    0.0415    0.0000 C   0  0  0
   -2.8102    0.4540    0.0000 C   0  0  0
   -2.8102    1.2790    0.0000 C   0  0  0
   -2.0958    1.6915    0.0000 C   0  0  0
   -1.3813    1.2790    0.0000 C   0  0  0
   -3.5247    1.6915    0.0000 C   0  0  0
   -4.2392    2.1040    0.0000 N   0  0  0
    2.1911   -3.2585    0.0000 C   0  0  0
    2.1911   -4.0835    0.0000 N   0  0  0
    2.1911    1.6915    0.0000 Br  0  0  0
  1  2  1
  1  3  1
  1  8  2
 10  2  1
  3  4  1
  3  5  2
  5  6  1
  6  7  2
  6 26  1
  7  8  1
  8  9  1
 10 11  1
 10 17  2
 12 11  2
 12 13  1
 12 14  1
 18 13  1
 15 14  2
 15 16  1
 17 15  1
 28 17  1
 18 19  1
 18 23  2
 19 20  2
 20 21  1
 21 22  2
 21 24  1
 22 23  1
 24 25  3
 26 27  3
M  END
> <molLogP>
4.675163

> <molLogS>
-7.28746

> <drugLikeness>
-0.129609

> <chembl_id>
CHEMBL308954

> <chembl_pref_name>
ETRAVIRINE

$$$$
C8H10FN3O3S
  MOLSOFT 04262021142D

 16 17  0  0  1  0  0  0  0  0999 V2000
   -0.5739   -0.2736    0.0000 O   0  0  0
    0.1405    0.1389    0.0000 C   0  0  0
    0.1405    0.9639    0.0000 N   0  0  0
    0.8550    1.3764    0.0000 C   0  0  0
    0.8550    2.2014    0.0000 N   0  0  0
    1.5695    0.9639    0.0000 C   0  0  0
    2.2839    1.3764    0.0000 F   0  0  0
    1.5695    0.1389    0.0000 C   0  0  0
    0.8550   -0.2736    0.0000 N   0  0  0
    0.8550   -1.0986    0.0000 C   0  0  1
    1.5224   -1.5835    0.0000 O   0  0  0
    1.2675   -2.3681    0.0000 C   0  0  1
    1.7524   -3.0356    0.0000 C   0  0  0
    2.5729   -2.9493    0.0000 O   0  0  0
    0.4425   -2.3681    0.0000 S   0  0  0
    0.1876   -1.5835    0.0000 C   0  0  0
  2  1  2
  2  3  1
  2  9  1
  4  3  2
  4  5  1
  4  6  1
  6  7  1
  6  8  2
  8  9  1
 10  9  1  1
 10 11  1
 10 16  1
 12 11  1
 12 13  1  1
 12 15  1
 13 14  1
 16 15  1
M  END
> <molLogP>
-0.68397

> <molLogS>
-2.439385

> <drugLikeness>
0.954575

> <chembl_id>
CHEMBL885

> <chembl_pref_name>
EMTRICITABINE

$$$$
C23H23ClFNO5
  MOLSOFT 04262021142D

 31 33  0  0  1  0  0  0  0  0999 V2000
   -2.5091   -0.8556    0.0000 C   0  0  0
    1.7777   -3.3306    0.0000 C   0  0  0
    2.4922   -2.0931    0.0000 C   0  0  0
    2.4922    1.2069    0.0000 O   0  0  0
    1.0632    1.2069    0.0000 O   0  0  0
   -0.3657   -2.0931    0.0000 O   0  0  0
    3.2066   -0.0306    0.0000 O   0  0  0
   -3.2236    1.2069    0.0000 F   0  0  0
   -3.2236    2.8569    0.0000 Cl  0  0  0
   -1.0802    2.4444    0.0000 C   0  0  0
   -1.7947    2.8569    0.0000 C   0  0  0
   -1.0802    1.6194    0.0000 C   0  0  0
   -0.3657    0.3819    0.0000 C   0  0  0
   -0.3657   -1.2681    0.0000 C   0  0  0
    1.7777   -0.8556    0.0000 C   0  0  0
    0.3487   -2.5056    0.0000 C   0  0  0
   -1.7947    0.3819    0.0000 C   0  0  0
   -1.7947   -1.2681    0.0000 O   0  0  0
    2.4922    0.3819    0.0000 C   0  0  0
   -2.5091    2.4444    0.0000 C   0  0  0
   -2.5091    1.6194    0.0000 C   0  0  0
   -1.7947    1.2069    0.0000 C   0  0  0
   -1.0802   -0.0306    0.0000 C   0  0  0
   -1.0802   -0.8556    0.0000 C   0  0  0
    1.7777   -0.0306    0.0000 C   0  0  0
    1.0632    0.3819    0.0000 C   0  0  0
    0.3487   -0.0306    0.0000 C   0  0  0
    0.3487   -0.8556    0.0000 C   0  0  0
    1.7777   -2.5056    0.0000 C   0  0  0
    1.0632   -2.0931    0.0000 C   0  0  2
    1.0632   -1.2681    0.0000 N   0  0  0
  1 18  1
  2 29  1
  3 29  1
 19  4  1
 26  5  2
 16  6  1
 19  7  2
 21  8  1
 20  9  1
 10 12  2
 10 11  1
 11 20  2
 12 22  1
 13 23  2
 13 27  1
 14 24  2
 14 28  1
 15 31  1
 15 25  2
 30 16  1
 17 23  1
 17 22  1
 24 18  1
 19 25  1
 20 21  1
 21 22  2
 23 24  1
 25 26  1
 26 27  1
 27 28  2
 28 31  1
 30 29  1
 30 31  1  1
M  END
> <molLogP>
4.162891

> <molLogS>
-7.098924

> <drugLikeness>
1.051243

> <chembl_id>
CHEMBL204656

> <chembl_pref_name>
ELVITEGRAVIR

$$$$
C22H25BrN2O3S
  MOLSOFT 04262021142D

 29 31  0  0  0  0  0  0  0  0999 V2000
    1.1667    0.0750    0.0000 C   0  0  0
    1.6583   -0.5958    0.0000 C   0  0  0
    0.3792   -0.1833    0.0000 C   0  0  0
    1.1667   -1.2708    0.0000 N   0  0  0
    0.3792   -1.0125    0.0000 C   0  0  0
   -0.3375    0.2292    0.0000 C   0  0  0
   -0.3375   -1.4250    0.0000 C   0  0  0
   -1.0500   -0.1875    0.0000 C   0  0  0
    1.5625    0.8000    0.0000 C   0  0  0
   -1.0500   -1.0125    0.0000 C   0  0  0
    2.4833   -0.5958    0.0000 C   0  0  0
   -0.3417    1.0542    0.0000 C   0  0  0
    2.8958   -1.3125    0.0000 S   0  0  0
    1.1375    1.5042    0.0000 O   0  0  0
   -1.0542    1.4625    0.0000 N   0  0  0
   -1.7667   -1.4250    0.0000 Br  0  0  0
    1.4250   -2.0542    0.0000 C   0  0  0
   -1.7625    0.2250    0.0000 O   0  0  0
    2.3875    0.8167    0.0000 O   0  0  0
    3.7208   -1.3125    0.0000 C   0  0  0
   -1.0583    2.2875    0.0000 C   0  0  0
   -1.7708    1.0500    0.0000 C   0  0  0
    2.7875    1.5375    0.0000 C   0  0  0
    4.1292   -2.0292    0.0000 C   0  0  0
    4.1250   -0.6000    0.0000 C   0  0  0
    3.6125    1.5583    0.0000 C   0  0  0
    4.9500   -0.5958    0.0000 C   0  0  0
    4.9542   -2.0292    0.0000 C   0  0  0
    5.3667   -1.3125    0.0000 C   0  0  0
  2  1  2
  3  1  1
  4  2  1
  5  3  1
  6  3  2
  7  5  2
  8  6  1
  9  1  1
 10  7  1
 11  2  1
 12  6  1
 13 11  1
 14  9  2
 15 12  1
 16 10  1
 17  4  1
 18  8  1
 19  9  1
 20 13  1
 21 15  1
 22 15  1
 23 19  1
 24 20  2
 25 20  1
 26 23  1
 27 25  2
 28 24  1
 29 27  1
  4  5  1
 10  8  2
 29 28  2
M  END
> <molLogP>
4.479024

> <molLogS>
-5.099603

> <drugLikeness>
0.901424

> <chembl_id>
CHEMBL1214598

> <chembl_pref_name>
UMIFENOVIR

$$$$
C14H9ClF3NO2
  MOLSOFT 04262021142D

 21 23  0  0  1  0  0  0  0  0999 V2000
    2.2033    0.2445    0.0000 Cl  0  0  0
   -1.4293   -1.2124    0.0000 F   0  0  0
   -0.3135   -0.8713    0.0000 F   0  0  0
   -1.7704   -0.0966    0.0000 F   0  0  0
   -2.0836    1.8945    0.0000 O   0  0  0
   -1.3691    0.6570    0.0000 O   0  0  0
   -0.6546    1.8945    0.0000 N   0  0  0
    0.0598    1.4820    0.0000 C   0  0  0
    0.7743    1.8945    0.0000 C   0  0  0
    1.4888    1.4820    0.0000 C   0  0  0
    1.4888    0.6570    0.0000 C   0  0  0
    0.7743    0.2445    0.0000 C   0  0  0
    0.0598    0.6570    0.0000 C   0  0  0
   -0.6546    0.2445    0.0000 C   0  0  2
   -0.2673   -0.4839    0.0000 C   0  0  0
    0.1200   -1.2124    0.0000 C   0  0  0
    0.5073   -1.9408    0.0000 C   0  0  0
    1.2070   -2.3780    0.0000 C   0  0  0
    0.4785   -2.7653    0.0000 C   0  0  0
   -1.0419   -0.4839    0.0000 C   0  0  0
   -1.3691    1.4820    0.0000 C   0  0  0
 11  1  1
 20  2  1
 20  3  1
 20  4  1
 21  5  2
 14  6  1
 21  6  1
  8  7  1
 21  7  1
  8  9  2
  8 13  1
  9 10  1
 10 11  2
 11 12  1
 12 13  2
 14 13  1
 14 15  1  6
 14 20  1  1
 15 16  3
 17 16  1
 17 18  1
 17 19  1
 18 19  1
M  END
> <molLogP>
4.301804

> <molLogS>
-5.004202

> <drugLikeness>
-0.468757

> <chembl_id>
CHEMBL223228

> <chembl_pref_name>
EFAVIRENZ

$$$$
C15H14N4O
  MOLSOFT 04262021142D

 20 23  0  0  0  0  0  0  0  0999 V2000
    7.1277   -9.6618    0.0000 N   0  0  0
    6.4839  -10.1819    0.0000 C   0  0  0
    7.9325   -9.8352    0.0000 C   0  0  0
    7.9449  -11.3292    0.0000 N   0  0  0
    6.4839  -11.0073    0.0000 C   0  0  0
    7.1401  -11.5191    0.0000 C   0  0  0
    8.2916  -10.5781    0.0000 C   0  0  0
    6.9420   -8.8694    0.0000 C   0  0  0
    8.3865   -9.1542    0.0000 N   0  0  0
    7.1731   -8.0894    0.0000 C   0  0  0
    6.3807   -8.2833    0.0000 C   0  0  0
    5.7781   -9.7815    0.0000 N   0  0  0
    6.9626  -12.3115    0.0000 O   0  0  0
    9.1170  -10.6359    0.0000 C   0  0  0
    5.7781  -11.4077    0.0000 C   0  0  0
    9.2078   -9.2037    0.0000 C   0  0  0
    5.0724  -10.1819    0.0000 C   0  0  0
    9.5752   -9.9466    0.0000 C   0  0  0
    9.4761  -11.3664    0.0000 C   0  0  0
    5.0724  -10.9991    0.0000 C   0  0  0
  2  1  1
  3  1  1
  4  7  1
  5  2  1
  6  5  1
  7  3  2
  8  1  1
  9  3  1
 10  8  1
 11  8  1
 12  2  2
 13  6  2
 14  7  1
 15  5  2
 16  9  2
 17 12  1
 18 16  1
 19 14  1
 20 17  2
 11 10  1
  6  4  1
 14 18  2
 20 15  1
M  END
> <molLogP>
2.763477

> <molLogS>
-3.204833

> <drugLikeness>
0.53042

> <chembl_id>
CHEMBL57

> <chembl_pref_name>
NEVIRAPINE

$$$$
CH3O5P
  MOLSOFT 04262021142D

  7  6  0  0  0  0  0  0  0  0999 V2000
    2.3667    0.1583    0.0000 P   0  0  0
    3.1917    0.1583    0.0000 C   0  0  0
    2.3667   -0.6667    0.0000 O   0  0  0
    1.5417    0.1583    0.0000 O   0  0  0
    2.3667    0.9833    0.0000 O   0  0  0
    3.6042   -0.5542    0.0000 O   0  0  0
    3.6042    0.8708    0.0000 O   0  0  0
  2  1  1
  3  1  1
  4  1  1
  5  1  2
  6  2  1
  7  2  2
M  END
> <molLogP>
-2.800178

> <molLogS>
-0.203865

> <drugLikeness>
-0.499043

> <chembl_id>
CHEMBL666

> <chembl_pref_name>
FOSCARNET

$$$$
C10H14N2O5
  MOLSOFT 04262021142D

 17 18  0  0  1  0  0  0  0  0999 V2000
   -0.1426    2.8722    0.0000 O   0  0  0
   -0.1426    2.0472    0.0000 C   0  0  0
   -0.8571    1.6347    0.0000 C   0  0  0
   -1.5716    2.0472    0.0000 C   0  0  0
   -0.8571    0.8097    0.0000 C   0  0  0
    0.5719    1.6347    0.0000 N   0  0  0
    0.5719    0.8097    0.0000 C   0  0  0
    1.2863    0.3972    0.0000 O   0  0  0
   -0.1426    0.3972    0.0000 N   0  0  0
   -0.1426   -0.4278    0.0000 C   0  0  1
    0.5248   -0.9127    0.0000 O   0  0  0
    0.2699   -1.6974    0.0000 C   0  0  1
    0.7548   -2.3648    0.0000 C   0  0  0
    1.5753   -2.2786    0.0000 O   0  0  0
   -0.5551   -1.6974    0.0000 C   0  0  2
   -1.0400   -2.3648    0.0000 O   0  0  0
   -0.8101   -0.9127    0.0000 C   0  0  0
  2  1  2
  2  6  1
  2  3  1
  3  4  1
  3  5  2
  5  9  1
  7  6  1
  7  8  2
  7  9  1
 10  9  1  1
 10 11  1
 10 17  1
 12 11  1
 12 13  1  1
 15 12  1
 13 14  1
 15 17  1
 15 16  1  6
M  END
> <molLogP>
-1.25664

> <molLogS>
-1.661178

> <drugLikeness>
0.898037

> <chembl_id>
CHEMBL374731

> <chembl_pref_name>
TELBIVUDINE

$$$$
C12H21N
  MOLSOFT 04262021142D

 13 15  0  0  0  0  0  0  0  0999 V2000
    2.0529    0.8485    0.0000 C   0  0  0
    2.0529    0.0000    0.0000 C   0  0  0
    2.6551    1.5739    0.0000 C   0  0  0
    1.4234   -0.3148    0.0000 C   0  0  0
    1.9571    1.2454    0.0000 C   0  0  0
    1.9571    0.3148    0.0000 C   0  0  0
    3.3667    1.2454    0.0000 C   0  0  0
    3.3667    0.3148    0.0000 C   0  0  0
    2.8603   -0.3148    0.0000 C   0  0  0
    2.7645    0.0137    0.0000 C   0  0  0
    1.1977    0.6373    0.0000 C   0  0  3
    1.1169    1.2946    0.0000 C   0  0  0
    0.6688    0.2388    0.0000 N   0  0  0
  1  2  1
  1  3  1
  2  4  1
  3  5  1
  4  6  1
  5  6  1
  3  7  1
  7  8  1
  2  9  1
  8  9  1
  6 10  1
  8 10  1
 11  6  1
 11 12  1
 11 13  1
M  END
> <molLogP>
1.521443

> <molLogS>
-2.961684

> <drugLikeness>
-0.017134

> <chembl_id>
CHEMBL959

> <chembl_pref_name>
RIMANTADINE

$$$$
C8H11N5O3
  MOLSOFT 04262021142D

 16 17  0  0  0  0  0  0  0  0999 V2000
    0.2917   -0.7475    0.0000 C   0  0  0
    0.2917    0.7475    0.0000 C   0  0  0
   -1.0028   -1.5132    0.0000 N   0  0  0
   -2.3155    0.7475    0.0000 N   0  0  0
   -1.0028    1.5132    0.0000 C   0  0  0
    1.7138   -1.2033    0.0000 N   0  0  0
    1.7138    1.2033    0.0000 N   0  0  0
   -2.3155   -0.7475    0.0000 C   0  0  0
    2.5889    0.0182    0.0000 C   0  0  0
   -0.9991    2.7132    0.0000 O   0  0  0
    2.1855   -2.6254    0.0000 C   0  0  0
   -3.3560   -1.3452    0.0000 N   0  0  0
    3.6552   -2.9294    0.0000 O   0  0  0
    5.9752   -5.7969    0.0000 O   0  0  0
    5.5974   -4.6579    0.0000 C   0  0  0
    4.1277   -4.3539    0.0000 C   0  0  0
  2  1  2
  3  1  1
  4  8  1
  5  2  1
  6  1  1
  7  2  1
  8  3  2
  9  6  1
 10  5  1
 11  6  1
 12  8  1
 13 11  1
 14 15  1
 15 16  1
 16 13  1
  9  7  2
  4  5  2
M  END
> <molLogP>
-0.930278

> <molLogS>
-1.227668

> <drugLikeness>
0.894453

> <chembl_id>
CHEMBL184

> <chembl_pref_name>
ACYCLOVIR

$$$$
C12H20N4O7
  MOLSOFT 04262021142D

 24 24  0  0  1  0  0  0  0  0999 V2000
    4.4749   -9.5539    0.0000 C   0  0  2
    5.1874   -9.1414    0.0000 O   0  0  0
    4.4749  -10.3789    0.0000 C   0  0  1
    5.9040   -9.5539    0.0000 C   0  0  0
    5.9040  -10.3789    0.0000 C   0  0  0
    5.1874  -10.7914    0.0000 C   0  0  2
    3.7583   -9.1414    0.0000 C   0  0  1
    5.8999  -12.0289    0.0000 C   0  0  0
    5.1874  -11.6164    0.0000 N   0  0  0
    6.6249   -9.1414    0.0000 C   0  0  0
    3.7540  -10.8039    0.0000 N   0  0  0
    3.7499  -11.6289    0.0000 C   0  0  0
    5.8999  -12.8580    0.0000 N   0  0  0
    3.0458   -9.5539    0.0000 C   0  0  2
    6.6290   -8.3164    0.0000 O   0  0  0
    4.4624  -12.0414    0.0000 O   0  0  0
    6.6123  -11.6164    0.0000 N   0  0  0
    3.7583   -8.3123    0.0000 O   0  0  0
    7.3373   -9.5581    0.0000 O   0  0  0
    3.0458  -10.3831    0.0000 O   0  0  0
    1.6124   -9.5539    0.0000 O   0  0  0
    2.3291   -9.1414    0.0000 C   0  0  0
    3.0332  -12.0373    0.0000 C   0  0  0
    4.4749   -8.7248    0.0000 H   0  0  0
  1  2  1
  3  1  1
  4  2  1
  6  5  1
  6  3  1
  7  1  1
  8  9  1
  6  9  1  6
 10  4  1
  3 11  1  1
 12 11  1
 13  8  2
 14  7  1
 15 10  2
 16 12  2
 17  8  1
  7 18  1  1
 19 10  1
 14 20  1  6
 21 22  1
 14 22  1
 23 12  1
  1 24  1  1
  4  5  2
M  END
> <molLogP>
-3.554666

> <molLogS>
-0.473498

> <drugLikeness>
-0.068133

> <chembl_id>
CHEMBL222813

> <chembl_pref_name>
ZANAMIVIR

$$$$
C14H18N6O
  MOLSOFT 04262021142D

 21 24  0  0  1  0  0  0  0  0999 V2000
    2.8292   -5.5500    0.0000 C   0  0  0
    3.5250   -5.7542    0.0000 N   0  0  0
    2.8292   -4.8250    0.0000 C   0  0  0
    2.2167   -4.4792    0.0000 C   0  0  0
    2.2167   -5.8917    0.0000 N   0  0  0
    3.5250   -4.6167    0.0000 N   0  0  0
    1.6250   -4.8250    0.0000 N   0  0  0
    3.9125   -5.1875    0.0000 C   0  0  0
    1.6250   -5.5500    0.0000 C   0  0  0
    3.5250   -6.7167    0.0000 C   0  0  1
    2.2167   -3.7917    0.0000 N   0  0  0
    3.3042   -7.3667    0.0000 C   0  0  0
    2.8250   -3.4417    0.0000 C   0  0  0
    2.6167   -7.3667    0.0000 C   0  0  0
    3.5042   -3.4542    0.0000 C   0  0  0
    3.1750   -2.8542    0.0000 C   0  0  0
    2.9667   -6.2917    0.0000 C   0  0  0
    1.0125   -5.8917    0.0000 N   0  0  0
    2.3917   -6.7125    0.0000 C   0  0  2
    1.1750   -6.7125    0.0000 O   0  0  0
    1.7875   -6.3625    0.0000 C   0  0  0
  2  1  1
  3  1  2
  4  3  1
  5  1  1
  6  3  1
  7  4  2
  8  2  1
  9  5  2
 10  2  1  1
 11  4  1
 10 12  1
 13 11  1
 14 12  2
 15 13  1
 16 13  1
 10 17  1
 18  9  1
 19 17  1
 20 21  1
 19 21  1  1
  8  6  2
  9  7  1
 19 14  1
 15 16  1
M  END
> <molLogP>
1.098443

> <molLogS>
-2.993837

> <drugLikeness>
1.026994

> <chembl_id>
CHEMBL1380

> <chembl_pref_name>
ABACAVIR

$$$$
C10H13N5O4
  MOLSOFT 04262021142D

 19 20  0  0  1  0  0  0  0  0999 V2000
   13.4542  -22.5250    0.0000 N   0  0  0
   13.4542  -23.3500    0.0000 C   0  0  0
   14.1662  -23.7583    0.0000 N   0  0  0
   14.8782  -23.3500    0.0000 C   0  0  0
   14.8782  -22.5250    0.0000 C   0  0  0
   14.1662  -22.1083    0.0000 C   0  0  0
   12.7403  -23.7635    0.0000 O   0  0  0
   14.1662  -21.2833    0.0000 O   0  0  0
   15.5939  -22.1146    0.0000 C   0  0  0
   14.1662  -24.5833    0.0000 C   0  0  2
   13.5048  -25.0695    0.0000 O   0  0  0
   13.7597  -25.8542    0.0000 C   0  0  1
   14.5848  -25.8542    0.0000 C   0  0  2
   14.8396  -25.0695    0.0000 C   0  0  0
   13.2748  -26.5216    0.0000 C   0  0  0
   12.4543  -26.4354    0.0000 O   0  0  0
   15.0697  -26.5216    0.0000 N   0  0  0
   14.7342  -27.2753    0.0000 N   0  3  0
   14.3167  -27.9875    0.0000 N   0  5  0
  2  3  1
 10  3  1  1
 10 11  1
  3  4  1
  4  5  2
  5  6  1
 12 11  1
 12 13  1
 13 14  1
 10 14  1
  2  7  2
 12 15  1  1
  1  2  1
 15 16  1
  6  8  2
 13 17  1  6
  1  6  1
 17 18  2
  5  9  1
 18 19  2
M  CHG  2  18   1  19  -1
M  END
> <molLogP>
-0.157986

> <molLogS>
-2.807042

> <drugLikeness>
0.677891

> <chembl_id>
CHEMBL129

> <chembl_pref_name>
ZIDOVUDINE

$$$$
Darunavir
  MOLSOFT 04262021142D

 40 43  0  0  1  0  0  0  0  0999 V2000
   10.3754   -3.6756    0.0000 S   0  0  0
   -0.0000   -0.0000    0.0000 O   0  0  0
    0.8229    2.5326    0.0000 O   0  0  0
    3.2870   -1.5229    0.0000 O   0  0  0
    7.9638   -3.4222    0.0000 O   0  0  0
    4.7123    0.4389    0.0000 O   0  0  0
   11.7678   -3.8220    0.0000 O   0  0  0
    8.9831   -3.5293    0.0000 O   0  0  0
    5.6986   -1.7764    0.0000 N   0  0  0
   10.5218   -2.2833    0.0000 N   0  0  0
    9.7901   -9.2450    0.0000 N   0  0  0
    2.1544    0.7000    0.0000 C   0  0  2
    0.8229    1.1326    0.0000 C   0  0  1
    2.1544   -0.7000    0.0000 C   0  0  2
    2.9773    1.8326    0.0000 C   0  0  0
    0.8229   -1.1326    0.0000 C   0  0  0
    2.1544    2.9652    0.0000 C   0  0  0
    6.9776   -1.2069    0.0000 C   0  0  2
    8.1102   -2.0298    0.0000 C   0  0  1
    4.5660   -0.9535    0.0000 C   0  0  0
    9.3891   -1.4604    0.0000 C   0  0  0
    7.1239    0.1854    0.0000 C   0  0  0
   11.8007   -1.7139    0.0000 C   0  0  0
   12.9334   -2.5368    0.0000 C   0  0  0
    8.4029    0.7548    0.0000 C   0  0  0
   10.2291   -5.0680    0.0000 C   0  0  0
   12.7870   -3.9291    0.0000 C   0  0  0
   14.2123   -1.9673    0.0000 C   0  0  0
    9.5355   -0.0681    0.0000 C   0  0  0
    8.5492    2.1472    0.0000 C   0  0  0
    8.9501   -5.6374    0.0000 C   0  0  0
   11.3617   -5.8909    0.0000 C   0  0  0
   10.8144    0.5014    0.0000 C   0  0  0
    9.8282    2.7166    0.0000 C   0  0  0
   10.9608    1.8937    0.0000 C   0  0  0
    8.8038   -7.0297    0.0000 C   0  0  0
   11.2154   -7.2832    0.0000 C   0  0  0
    9.9364   -7.8526    0.0000 C   0  0  0
    3.0420    0.4116    0.0000 H   0  0  0
   -0.0648    1.4210    0.0000 H   0  0  0
  1  7  2
  1  8  2
  1 10  1
  1 26  1
 13  2  1
  2 16  1
 13  3  1
  3 17  1
 14  4  1  1
  4 20  1
 19  5  1  1
  6 20  2
 18  9  1
  9 20  1
 10 21  1
 10 23  1
 11 38  1
 12 13  1
 12 14  1
 12 15  1
 12 39  1  6
 13 40  1  6
 14 16  1
 15 17  1
 18 19  1
 18 22  1  1
 19 21  1
 22 25  1
 23 24  1
 24 27  1
 24 28  1
 25 29  2
 25 30  1
 26 31  2
 26 32  1
 29 33  1
 30 34  2
 31 36  1
 32 37  2
 33 35  2
 34 35  1
 36 38  2
 37 38  1
M  END
> <molLogP>
3.417154

> <molLogS>
-4.867515

> <drugLikeness>
0.599687

$$$$
Nelfinavir
  MOLSOFT 04262021142D

 42 45  0  0  1  0  0  0  0  0999 V2000
   -5.6000   -2.4249    0.0000 S   0  0  0
    0.7000    3.6373    0.0000 O   0  0  0
   -1.4000   -2.4249    0.0000 O   0  0  0
   -6.3000   -1.2124    0.0000 O   0  0  0
   -5.6000    4.8497    0.0000 O   0  0  0
    0.0000    0.0000    0.0000 N   0  0  0
   -1.4000    2.4249    0.0000 N   0  0  0
   -4.2000   -0.0000    0.0000 N   0  0  0
    2.8000   -0.0000    0.0000 C   0  0  2
    2.1000   -1.2124    0.0000 C   0  0  1
    2.1000    1.2124    0.0000 C   0  0  0
    0.7000   -1.2124    0.0000 C   0  0  0
    4.2000   -0.0000    0.0000 C   0  0  0
    2.8000   -2.4249    0.0000 C   0  0  0
    0.7000    1.2124    0.0000 C   0  0  1
    4.9000   -1.2124    0.0000 C   0  0  0
    4.2000   -2.4249    0.0000 C   0  0  0
   -1.4000    0.0000    0.0000 C   0  0  0
   -0.0000    2.4249    0.0000 C   0  0  0
   -2.1000   -1.2124    0.0000 C   0  0  2
   -3.5000   -1.2124    0.0000 C   0  0  2
   -2.1000    3.6373    0.0000 C   0  0  0
   -4.2000   -2.4249    0.0000 C   0  0  0
   -3.3124    2.9373    0.0000 C   0  0  0
   -0.8876    4.3373    0.0000 C   0  0  0
   -2.8000    4.8497    0.0000 C   0  0  0
   -5.6000   -0.0000    0.0000 C   0  0  0
   -6.3000    1.2124    0.0000 C   0  0  0
   -6.3000   -3.6373    0.0000 C   0  0  0
   -5.6000    2.4249    0.0000 C   0  0  0
   -7.7000    1.2124    0.0000 C   0  0  0
   -7.7000   -3.6373    0.0000 C   0  0  0
   -5.6000   -4.8497    0.0000 C   0  0  0
   -6.3000    3.6373    0.0000 C   0  0  0
   -4.2000    2.4249    0.0000 C   0  0  0
   -8.4000    2.4249    0.0000 C   0  0  0
   -8.4000   -4.8497    0.0000 C   0  0  0
   -6.3000   -6.0622    0.0000 C   0  0  0
   -7.7000    3.6373    0.0000 C   0  0  0
   -7.7000   -6.0622    0.0000 C   0  0  0
    3.2667    0.8083    0.0000 H   0  0  0
    1.6333   -2.0207    0.0000 H   0  0  0
  1 23  1
  1 29  1
  2 19  2
 20  3  1  1
  4 27  2
  5 34  1
  6 12  1
 15  6  1
  6 18  1
  7 19  1
  7 22  1
 21  8  1
  8 27  1
  9 10  1
  9 11  1
  9 13  1
  9 41  1  1
 10 12  1
 10 14  1
 10 42  1  1
 15 11  1
 13 16  1
 14 17  1
 15 19  1  6
 16 17  1
 20 18  1
 21 20  1  6
 21 23  1
 22 24  1
 22 25  1
 22 26  1
 27 28  1
 28 30  2
 28 31  1
 29 32  2
 29 33  1
 30 34  1
 30 35  1
 31 36  2
 32 37  1
 33 38  2
 34 39  2
 36 39  1
 37 40  2
 38 40  1
M  END
> <molLogP>
4.341889

> <molLogS>
-6.135779

> <drugLikeness>
1.411287

$$$$
Saquinavir
  MOLSOFT 04262021142D

 51 55  0  0  1  0  0  0  0  0999 V2000
    0.0000    0.0000    0.0000 N   0  0  0
    0.7000    1.2124    0.0000 C   0  0  2
   -0.0000    2.4249    0.0000 C   0  0  0
  -10.5000   -6.0622    0.0000 N   0  0  0
   -5.6000   -2.4249    0.0000 C   0  0  0
   -8.4000   -4.8497    0.0000 C   0  0  0
   -7.7000   -3.6373    0.0000 N   0  0  0
   -4.2000   -2.4249    0.0000 N   0  0  0
   -6.3000   -3.6373    0.0000 C   0  0  1
   -9.8000   -4.8497    0.0000 C   0  0  0
   -5.6000   -4.8497    0.0000 C   0  0  0
    2.1000    1.2124    0.0000 C   0  0  0
   -1.4000    0.0000    0.0000 C   0  0  0
    0.7000   -1.2124    0.0000 C   0  0  0
   -1.4000    2.4249    0.0000 N   0  0  0
   -3.5000   -1.2124    0.0000 C   0  0  2
   -2.1000   -1.2124    0.0000 C   0  0  2
   -4.2000   -4.8497    0.0000 C   0  0  0
    2.8000   -0.0000    0.0000 C   0  0  1
  -11.9000   -6.0622    0.0000 C   0  0  0
    2.1000   -1.2124    0.0000 C   0  0  2
    0.7000    3.6373    0.0000 O   0  0  0
   -6.3000   -1.2124    0.0000 O   0  0  0
   -7.7000   -6.0622    0.0000 O   0  0  0
   -4.2000   -0.0000    0.0000 C   0  0  0
   -2.1000    3.6373    0.0000 C   0  0  0
  -10.5000   -3.6373    0.0000 C   0  0  0
   -3.5000   -3.6373    0.0000 O   0  0  0
  -12.6000   -4.8497    0.0000 C   0  0  0
  -11.9000   -3.6373    0.0000 C   0  0  0
   -3.5000   -6.0622    0.0000 N   0  0  0
   -1.4000   -2.4249    0.0000 O   0  0  0
   -5.6000   -0.0000    0.0000 C   0  0  0
    4.2000   -0.0000    0.0000 C   0  0  0
    2.8000   -2.4249    0.0000 C   0  0  0
  -12.6000   -7.2746    0.0000 C   0  0  0
   -3.3124    2.9373    0.0000 C   0  0  0
   -0.8876    4.3373    0.0000 C   0  0  0
   -2.8000    4.8497    0.0000 C   0  0  0
  -14.0000   -4.8497    0.0000 C   0  0  0
   -5.7220    1.3947    0.0000 C   0  0  0
   -6.7468   -0.8030    0.0000 C   0  0  0
    4.2000   -2.4249    0.0000 C   0  0  0
    4.9000   -1.2124    0.0000 C   0  0  0
  -14.0000   -7.2746    0.0000 C   0  0  0
  -14.7000   -6.0622    0.0000 C   0  0  0
   -6.9908    1.9863    0.0000 C   0  0  0
   -8.0156   -0.2113    0.0000 C   0  0  0
   -8.1377    1.1833    0.0000 C   0  0  0
    1.6333   -2.0207    0.0000 H   0  0  0
    3.2667    0.8083    0.0000 H   0  0  0
  2  1  1
  2  3  1  6
  4 10  2
  5  8  1
  6  7  1
  9  7  1
 16  8  1
  9  5  1
 10  6  1
  9 11  1  6
  2 12  1
 13  1  1
 14  1  1
 15  3  1
 16 17  1
 17 13  1
 18 11  1
 19 12  1
 20  4  1
 21 14  1
 22  3  2
 23  5  2
 24  6  2
 16 25  1  1
 26 15  1
 27 10  1
 28 18  2
 29 30  1
 30 27  2
 31 18  1
 17 32  1  1
 33 25  1
 19 34  1
 21 35  1
 36 20  1
 37 26  1
 38 26  1
 39 26  1
 40 29  1
 41 33  1
 42 33  2
 43 35  1
 44 34  1
 45 36  2
 46 40  2
 47 41  2
 48 42  1
 49 48  2
 21 50  1  1
 19 51  1  1
 21 19  1
 43 44  1
 49 47  1
 29 20  2
 46 45  1
M  END
> <molLogP>
2.962962

> <molLogS>
-6.692835

> <drugLikeness>
0.694645

$$$$
Remdesivir
  MOLSOFT 04262021142D

 42 45  0  0  0  0  0  0  0  0999 V2000
  -10.4226   -5.3975    0.0000 C   0  0  0
  -11.8226   -5.3975    0.0000 C   0  0  0
  -12.5226   -4.1851    0.0000 C   0  0  0
  -13.9226   -4.1851    0.0000 C   0  0  0
  -14.6226   -5.3975    0.0000 C   0  0  0
  -11.8226   -2.9726    0.0000 C   0  0  0
  -10.4226   -2.9726    0.0000 O   0  0  0
   -9.7226   -1.7602    0.0000 C   0  0  0
  -10.4226   -0.5477    0.0000 O   0  0  0
   -8.3226   -1.7602    0.0000 C   0  0  3
   -7.6226   -2.9726    0.0000 C   0  0  0
   -7.6226   -0.5477    0.0000 N   0  0  0
   -6.2226   -0.5477    0.0000 P   0  0  3
   -6.2226   -1.9477    0.0000 O   0  0  0
   -4.8226   -0.5477    0.0000 O   0  0  0
   -4.1226    0.6647    0.0000 C   0  0  0
   -2.7226    0.6647    0.0000 C   0  0  3
   -1.8997    1.7973    0.0000 C   0  0  3
   -0.5683    1.3647    0.0000 C   0  0  3
   -0.5683   -0.0353    0.0000 C   0  0  3
   -1.8997   -0.4679    0.0000 O   0  0  0
   -0.2772   -1.4047    0.0000 C   0  0  0
    0.0139   -2.7741    0.0000 N   0  0  0
    0.8241    0.1110    0.0000 C   0  0  0
    1.5241    1.3235    0.0000 C   0  0  0
    2.8935    1.0324    0.0000 C   0  0  0
    3.0398   -0.3599    0.0000 C   0  0  0
    1.7608   -0.9294    0.0000 N   0  0  0
    1.6145   -2.3217    0.0000 N   0  0  0
    2.7471   -3.1446    0.0000 C   0  0  0
    4.0261   -2.5752    0.0000 N   0  0  0
    4.1724   -1.1828    0.0000 C   0  0  0
    5.4514   -0.6134    0.0000 N   0  0  0
    0.5644    2.1876    0.0000 O   0  0  0
   -2.3324    3.1288    0.0000 O   0  0  0
   -6.2226    0.8523    0.0000 O   0  0  0
   -7.4351    1.5523    0.0000 C   0  0  0
   -8.6475    0.8522    0.0000 C   0  0  0
   -9.8599    1.5523    0.0000 C   0  0  0
   -9.8599    2.9523    0.0000 C   0  0  0
   -8.6475    3.6522    0.0000 C   0  0  0
   -7.4351    2.9523    0.0000 C   0  0  0
  1  2  1
  2  3  1
  4  5  1
  3  4  1
  3  6  1
  6  7  1
  7  8  1
  8  9  2
 10  8  1
 10 11  1
 10 12  1
 13 12  1
 13 14  2
 15 16  1
 17 16  1
 17 18  1
 17 21  1
 20 21  1
 22 23  3
 20 22  1
 20 24  1
 24 25  2
 25 26  1
 26 27  2
 28 24  1
 27 28  1
 28 29  1
 29 30  2
 30 31  1
 32 27  1
 31 32  2
 32 33  1
 19 20  1
 19 34  1
 18 19  1
 18 35  1
 13 15  1
 13 36  1
 36 37  1
 37 38  2
 38 39  1
 39 40  2
 40 41  1
 42 37  1
 41 42  2
M  END
> <molLogP>
0.746731

> <molLogS>
-5.265609

> <drugLikeness>
0.129697

$$$$
Favipiravir
  MOLSOFT 04262021142D

 11 11  0  0  0  0  0  0  0  0999 V2000
    0.0000    0.0000    0.0000 C   0  0  0
    0.7000    1.2124    0.0000 C   0  0  0
    2.1000    1.2124    0.0000 N   0  0  0
    2.8000   -0.0000    0.0000 C   0  0  0
    2.1000   -1.2124    0.0000 C   0  0  0
    0.7000   -1.2124    0.0000 N   0  0  0
    2.8000   -2.4249    0.0000 O   0  0  0
   -0.0000    2.4249    0.0000 F   0  0  0
    4.2000   -0.0000    0.0000 C   0  0  0
    4.9000   -1.2124    0.0000 O   0  0  0
    4.9000    1.2124    0.0000 N   0  0  0
  5  6  2
  6  1  1
  1  2  2
  5  7  1
  3  4  2
  2  8  1
  4  9  1
  4  5  1
  9 10  2
  2  3  1
  9 11  1
M  END
> <molLogP>
-0.783445

> <molLogS>
-1.76187

> <drugLikeness>
-0.591297

$$$$
Ritonavir
  MOLSOFT 04262021142D

 50 53  0  0  1  0  0  0  0  0999 V2000
   -0.0000   -0.0000    0.0000 S   0  0  0
   22.6595   -3.4277    0.0000 S   0  0  0
   14.3587   -0.5750    0.0000 O   0  0  0
    9.5355   -0.0681    0.0000 O   0  0  0
   19.0355   -2.4743    0.0000 O   0  0  0
   17.6102   -4.4360    0.0000 O   0  0  0
    5.5523   -3.1687    0.0000 O   0  0  0
   10.5218   -2.2833    0.0000 N   0  0  0
   16.6239   -2.2208    0.0000 N   0  0  0
    6.9776   -1.2069    0.0000 N   0  0  0
    4.5660   -0.9535    0.0000 N   0  0  0
    2.1544    0.7000    0.0000 N   0  0  0
   23.1305   -1.2120    0.0000 N   0  0  0
   11.8007   -1.7139    0.0000 C   0  0  2
   12.9334   -2.5368    0.0000 C   0  0  0
   14.2123   -1.9673    0.0000 C   0  0  1
   15.3449   -2.7902    0.0000 C   0  0  2
   11.9471   -0.3215    0.0000 C   0  0  0
   15.1986   -4.1826    0.0000 C   0  0  0
    8.1102   -2.0298    0.0000 C   0  0  1
    7.9638   -3.4222    0.0000 C   0  0  0
    9.3891   -1.4604    0.0000 C   0  0  0
   10.8144    0.5014    0.0000 C   0  0  0
   13.9196   -4.7520    0.0000 C   0  0  0
    6.6849   -3.9916    0.0000 C   0  0  0
    9.0965   -4.2451    0.0000 C   0  0  0
   11.5355    1.7014    0.0000 C   0  0  0
    9.4147    0.5258    0.0000 C   0  0  0
   17.7565   -3.0437    0.0000 C   0  0  0
   12.7870   -3.9291    0.0000 C   0  0  0
   13.7733   -6.1443    0.0000 C   0  0  0
    5.6986   -1.7764    0.0000 C   0  0  0
   10.8568    2.9259    0.0000 C   0  0  0
    8.7359    1.7503    0.0000 C   0  0  0
   11.5080   -4.4985    0.0000 C   0  0  0
   12.4943   -6.7138    0.0000 C   0  0  0
    9.4570    2.9503    0.0000 C   0  0  0
   11.3617   -5.8909    0.0000 C   0  0  0
    3.2870   -1.5229    0.0000 C   0  0  0
    4.7123    0.4389    0.0000 C   0  0  0
   20.1681   -3.2972    0.0000 C   0  0  0
    2.1544   -0.7000    0.0000 C   0  0  0
   21.4471   -2.7277    0.0000 C   0  0  0
    0.8229    1.1326    0.0000 C   0  0  0
    0.8229   -1.1326    0.0000 C   0  0  0
    0.3903    2.4641    0.0000 C   0  0  0
    1.3271    3.5045    0.0000 C   0  0  0
   -0.9791    2.7552    0.0000 C   0  0  0
   21.7382   -1.3583    0.0000 C   0  0  0
   23.6999   -2.4910    0.0000 C   0  0  0
  1 44  1
  1 45  1
  2 43  1
  2 50  1
 16  3  1  6
  4 22  2
  5 29  1
  5 41  1
  6 29  2
  7 32  2
 14  8  1
  8 22  1
 17  9  1
  9 29  1
 20 10  1
 10 32  1
 11 32  1
 11 39  1
 11 40  1
 12 42  1
 12 44  2
 13 49  1
 13 50  2
 14 15  1
 14 18  1  1
 16 15  1
 16 17  1
 17 19  1  1
 18 23  1
 19 24  1
 20 21  1  6
 20 22  1
 21 25  1
 21 26  1
 23 27  2
 23 28  1
 24 30  2
 24 31  1
 27 33  1
 28 34  2
 30 35  1
 31 36  2
 33 37  2
 34 37  1
 35 38  2
 36 38  1
 39 42  1
 41 43  1
 42 45  2
 43 49  2
 44 46  1
 46 47  1
 46 48  1
M  END
> <molLogP>
5.409649

> <molLogS>
-7.855816

> <drugLikeness>
0.113893

$$$$
Camphor
  MOLSOFT 04262021142D

 12 13  0  0  1  0  0  0  0  0999 V2000
   -0.0000   -0.0000    0.0000 C   0  0  0
    0.8229    1.1326    0.0000 C   0  0  2
    2.5982    1.8877    0.0000 C   0  0  0
    3.4211    0.7551    0.0000 C   0  0  0
    2.1544   -0.7000    0.0000 C   0  0  1
    0.8229   -1.1326    0.0000 C   0  0  0
    2.9719    3.2369    0.0000 O   0  0  0
   -0.0490    2.2280    0.0000 C   0  0  0
    2.1544    0.7000    0.0000 C   0  0  0
    0.8229    0.2674    0.0000 C   0  0  0
    1.3315   -0.4326    0.0000 C   0  0  0
    2.6692   -1.4785    0.0000 H   0  0  0
  2  1  1
  2  3  1
  3  4  1
  5  4  1
  5  6  1
  6  1  1
  3  7  2
  2  8  1  6
  2  9  1
  5  9  1
  9 10  1
  9 11  1
  5 12  1  6
M  END
> <molLogP>
2.609748

> <molLogS>
-2.812736

> <drugLikeness>
0.105309

$$$$
3,7-Dimethyl-1,6-octadien-3-ol
  MOLSOFT 04262021142D

 11 10  0  0  0  0  0  0  0  0999 V2000
    0.8876    1.9124    0.0000 C   0  0  0
    2.1000    1.2124    0.0000 C   0  0  3
    2.8000    2.4249    0.0000 C   0  0  0
    1.4000    0.0000    0.0000 O   0  0  0
    3.3124    0.5124    0.0000 C   0  0  0
   -0.3249    1.2124    0.0000 C   0  0  0
    4.2000    2.4249    0.0000 C   0  0  0
    4.9000    3.6373    0.0000 C   0  0  0
    6.3000    3.6373    0.0000 C   0  0  0
    7.0000    2.4249    0.0000 C   0  0  0
    7.0000    4.8497    0.0000 C   0  0  0
  1  6  2
  2  1  1
  3  7  1
  2  4  1
  7  8  1
  8  9  2
  2  5  1
  9 10  1
  2  3  1
  9 11  1
M  END
> <molLogP>
3.245876

> <molLogS>
-2.048703

> <drugLikeness>
-0.989945

$$$$
Eugenol
  MOLSOFT 04262021142D

 12 12  0  0  0  0  0  0  0  0999 V2000
    0.0000    0.0000    0.0000 C   0  0  0
    0.7000    1.2124    0.0000 C   0  0  0
    2.1000    1.2124    0.0000 C   0  0  0
    2.8000   -0.0000    0.0000 C   0  0  0
    2.1000   -1.2124    0.0000 C   0  0  0
    0.7000   -1.2124    0.0000 C   0  0  0
    2.8000   -2.4249    0.0000 C   0  0  0
    4.2000   -2.4249    0.0000 C   0  0  0
    4.9000   -3.6373    0.0000 C   0  0  0
   -0.0000    2.4249    0.0000 O   0  0  0
   -1.4000    0.0000    0.0000 O   0  0  0
   -2.1000   -1.2124    0.0000 C   0  0  0
  6  1  1
  1  2  2
  5  7  1
  3  4  2
  7  8  1
  8  9  2
  4  5  1
  2 10  1
  2  3  1
  1 11  1
  5  6  2
 11 12  1
M  END
> <molLogP>
2.612367

> <molLogS>
-2.448395

> <drugLikeness>
-0.738403

$$$$
Camphene
  MOLSOFT 04262021142D

 10 11  0  0  0  0  0  0  0  0999 V2000
   -0.0000   -0.0000    0.0000 C   0  0  0
    0.8229    1.1326    0.0000 C   0  0  0
    2.1544    0.7000    0.0000 C   0  0  3
    0.8229   -1.1326    0.0000 C   0  0  3
    2.1544   -0.7000    0.0000 C   0  0  0
    3.4211   -0.7551    0.0000 C   0  0  0
    2.5982   -1.8877    0.0000 C   0  0  0
    1.9548   -3.1311    0.0000 C   0  0  0
    3.7896   -2.6230    0.0000 C   0  0  0
    4.8197   -0.6935    0.0000 C   0  0  0
  1  2  1
  3  2  1
  4  1  1
  4  5  1
  3  5  1
  3  6  1
  6  7  1
  4  7  1
  7  8  1
  7  9  1
  6 10  2
M  END
> <molLogP>
3.654261

> <molLogS>
-3.233909

> <drugLikeness>
-1.315493

$$$$
(+)-a-Pinene
  MOLSOFT 04262021142D

 12 13  0  0  1  0  0  0  0  0999 V2000
   -0.0068    0.3584    0.0000 C   0  0  0
    0.6932   -0.8540    0.0000 C   0  0  2
    1.2056    1.0584    0.0000 C   0  0  1
    1.9056   -0.1540    0.0000 C   0  0  0
    2.5320   -1.5771    0.0000 C   0  0  0
    3.1596    0.7652    0.0000 C   0  0  0
   -0.7068    1.5708    0.0000 C   0  0  0
   -1.2193   -0.3416    0.0000 C   0  0  0
    3.5219   -0.5871    0.0000 C   0  0  0
    4.0921    1.8094    0.0000 C   0  0  0
    0.0841   -1.5613    0.0000 H   0  0  0
    1.0318    1.9754    0.0000 H   0  0  0
  2  1  1
  3  1  1
  1  7  1
  1  8  1
  2  4  1
  2  5  1
  2 11  1  1
  3  4  1
  3  6  1
  3 12  1  1
  5  9  1
  6  9  2
  6 10  1
M  ZZC   1 c1
M  ZZC   2 c2
M  ZZC   3 c3
M  ZZC   4 c4
M  ZZC   5 c5
M  ZZC   6 c6
M  ZZC   7 c7
M  ZZC   8 c8
M  ZZC   9 c9
M  ZZC  10 c10
M  ZZC  11 h1
M  ZZC  12 h2
M  ZZM   1 1
M  ZZI   1 100
M  ZZM   2 1
M  ZZI   2 100
M  ZZM   3 1
M  ZZI   3 100
M  ZZM   4 1
M  ZZI   4 100
M  ZZM   5 1
M  ZZI   5 100
M  ZZM   6 1
M  ZZI   6 100
M  ZZM   7 1
M  ZZI   7 100
M  ZZM   8 1
M  ZZI   8 100
M  ZZM   9 1
M  ZZI   9 100
M  ZZM  10 1
M  ZZI  10 100
M  ZZM  11 5
M  ZZI  11 1
M  ZZM  12 5
M  ZZI  12 1
M  END
> <molLogP>
3.892044

> <molLogS>
-2.827807

> <drugLikeness>
-1.451166

$$$$
D-Citronellol
  MOLSOFT 04262021142D

 11 10  0  0  1  0  0  0  0  0999 V2000
   10.1818    1.1022    0.0000 O   0  0  0
    6.6818    2.3147    0.0000 C   0  0  1
    5.9818    3.5271    0.0000 C   0  0  0
    8.0818    2.3147    0.0000 C   0  0  0
    4.5818    3.5271    0.0000 C   0  0  0
    5.9818    1.1022    0.0000 C   0  0  0
    8.7818    1.1022    0.0000 C   0  0  0
    3.8818    4.7395    0.0000 C   0  0  0
    2.4818    4.7395    0.0000 C   0  0  0
    1.7818    3.5271    0.0000 C   0  0  0
    1.7818    5.9520    0.0000 C   0  0  0
  1  7  1
  2  3  1
  2  4  1
  2  6  1  1
  3  5  1
  4  7  1
  5  8  1
  8  9  2
  9 10  1
  9 11  1
M  ZZC   1 o1
M  ZZC   2 c1
M  ZZC   3 c2
M  ZZC   4 c3
M  ZZC   5 c4
M  ZZC   6 c5
M  ZZC   7 c6
M  ZZC   8 c7
M  ZZC   9 c8
M  ZZC  10 c9
M  ZZC  11 c10
M  ZZM   1 6
M  ZZI   1 50
M  ZZM   2 1
M  ZZI   2 100
M  ZZM   3 1
M  ZZI   3 100
M  ZZM   4 1
M  ZZI   4 100
M  ZZM   5 1
M  ZZI   5 100
M  ZZM   6 1
M  ZZI   6 100
M  ZZM   7 1
M  ZZI   7 100
M  ZZM   8 1
M  ZZI   8 100
M  ZZM   9 1
M  ZZI   9 100
M  ZZM  10 1
M  ZZI  10 100
M  ZZM  11 1
M  ZZI  11 100
M  END
> <molLogP>
3.507014

> <molLogS>
-2.673021

> <drugLikeness>
-0.932714

$$$$
1-Methoxy-4-(2-propenyl)benzene
  MOLSOFT 04262021142D

 11 11  0  0  0  0  0  0  0  0999 V2000
    4.2000   -0.0000    0.0000 O   0  0  0
    0.0000    0.0000    0.0000 C   0  0  0
   -1.4000   -0.0000    0.0000 C   0  0  0
    0.7000    1.2124    0.0000 C   0  0  0
    0.7000   -1.2124    0.0000 C   0  0  0
    2.8000    0.0000    0.0000 C   0  0  0
    2.1000    1.2124    0.0000 C   0  0  0
    2.1000   -1.2124    0.0000 C   0  0  0
   -2.1000   -1.2124    0.0000 C   0  0  0
    4.9000    1.2124    0.0000 C   0  0  0
   -3.5000   -1.2124    0.0000 C   0  0  0
  1  6  1
  1 10  1
  2  3  1
  2  4  2
  2  5  1
  3  9  1
  4  7  1
  5  8  2
  6  7  2
  6  8  1
  9 11  2
M  ZZC   1 o1
M  ZZC   2 c1
M  ZZC   3 c2
M  ZZC   4 c3
M  ZZC   5 c4
M  ZZC   6 c5
M  ZZC   7 c6
M  ZZC   8 c7
M  ZZC   9 c8
M  ZZC  10 c9
M  ZZC  11 c10
M  ZZM   1 6
M  ZZI   1 50
M  ZZM   2 1
M  ZZI   2 100
M  ZZM   3 1
M  ZZI   3 100
M  ZZM   4 1
M  ZZI   4 100
M  ZZM   5 1
M  ZZI   5 100
M  ZZM   6 1
M  ZZI   6 100
M  ZZM   7 1
M  ZZI   7 100
M  ZZM   8 1
M  ZZI   8 100
M  ZZM   9 1
M  ZZI   9 100
M  ZZM  10 1
M  ZZI  10 100
M  ZZM  11 1
M  ZZI  11 100
M  END
> <molLogP>
2.991808

> <molLogS>
-2.874848

> <drugLikeness>
-1.736796

$$$$
beta-Pinene
  MOLSOFT 04262021142D

 12 13  0  0  1  0  0  0  0  0999 V2000
   -0.0068    0.3584    0.0000 C   0  0  0
    0.6932   -0.8540    0.0000 C   0  0  2
    1.2056    1.0584    0.0000 C   0  0  1
    1.9056   -0.1540    0.0000 C   0  0  0
    2.5320   -1.5771    0.0000 C   0  0  0
    3.1596    0.7652    0.0000 C   0  0  0
    3.5219   -0.5871    0.0000 C   0  0  0
   -0.7068    1.5708    0.0000 C   0  0  0
   -1.2193   -0.3416    0.0000 C   0  0  0
    4.0921    1.8094    0.0000 C   0  0  0
    0.0841   -1.5613    0.0000 H   0  0  0
    1.0318    1.9754    0.0000 H   0  0  0
  2  1  1
  3  1  1
  1  8  1
  1  9  1
  2  4  1
  2  5  1
  2 11  1  1
  3  4  1
  3  6  1
  3 12  1  1
  5  7  1
  6  7  1
  6 10  2
M  ZZC   1 c1
M  ZZC   2 c2
M  ZZC   3 c3
M  ZZC   4 c4
M  ZZC   5 c5
M  ZZC   6 c6
M  ZZC   7 c7
M  ZZC   8 c8
M  ZZC   9 c9
M  ZZC  10 c10
M  ZZC  11 h1
M  ZZC  12 h2
M  ZZM   1 1
M  ZZI   1 100
M  ZZM   2 1
M  ZZI   2 100
M  ZZM   3 1
M  ZZI   3 100
M  ZZM   4 1
M  ZZI   4 100
M  ZZM   5 1
M  ZZI   5 100
M  ZZM   6 1
M  ZZI   6 100
M  ZZM   7 1
M  ZZI   7 100
M  ZZM   8 1
M  ZZI   8 100
M  ZZM   9 1
M  ZZI   9 100
M  ZZM  10 1
M  ZZI  10 100
M  ZZM  11 5
M  ZZI  11 1
M  ZZM  12 5
M  ZZI  12 1
M  END
> <molLogP>
3.719626

> <molLogS>
-3.006014

> <drugLikeness>
-1.393288

$$$$
Polylimonene
  MOLSOFT 04262021142D

 10 10  0  0  1  0  0  0  0  0999 V2000
    0.0938    0.3500    0.0000 C   0  0  1
    1.3062    1.0500    0.0000 C   0  0  0
    0.0938   -1.0500    0.0000 C   0  0  0
    2.5187    0.3500    0.0000 C   0  0  0
    2.5187   -1.0500    0.0000 C   0  0  0
    1.3062   -1.7500    0.0000 C   0  0  0
   -1.1187    1.0500    0.0000 C   0  0  0
    3.7311   -1.7500    0.0000 C   0  0  0
   -1.1187    2.4500    0.0000 C   0  0  0
   -2.3311    0.3500    0.0000 C   0  0  0
  1  2  1
  1  3  1
  1  7  1  1
  2  4  1
  3  6  1
  4  5  1
  5  6  2
  5  8  1
  7  9  1
  7 10  2
M  ZZC   1 c1
M  ZZC   2 c2
M  ZZC   3 c3
M  ZZC   4 c4
M  ZZC   5 c5
M  ZZC   6 c6
M  ZZC   7 c7
M  ZZC   8 c8
M  ZZC   9 c9
M  ZZC  10 c10
M  ZZM   1 1
M  ZZI   1 100
M  ZZM   2 1
M  ZZI   2 100
M  ZZM   3 1
M  ZZI   3 100
M  ZZM   4 1
M  ZZI   4 100
M  ZZM   5 1
M  ZZI   5 100
M  ZZM   6 1
M  ZZI   6 100
M  ZZM   7 1
M  ZZI   7 100
M  ZZM   8 1
M  ZZI   8 100
M  ZZM   9 1
M  ZZI   9 100
M  ZZM  10 1
M  ZZI  10 100
M  END
> <molLogP>
3.827875

> <molLogS>
-3.282057

> <drugLikeness>
-1.536174

$$$$
7-Methyl-3-methylene-1,6-octadiene
  MOLSOFT 04262021142D

 10  9  0  0  0  0  0  0  0  0999 V2000
    5.0400    2.9098    0.0000 C   0  0  0
    3.6400    2.9098    0.0000 C   0  0  0
    5.7400    4.1223    0.0000 C   0  0  0
    7.1400    4.1223    0.0000 C   0  0  0
    2.9400    1.6974    0.0000 C   0  0  0
    7.8400    5.3347    0.0000 C   0  0  0
    7.8400    2.9098    0.0000 C   0  0  0
    1.5400    1.6974    0.0000 C   0  0  0
    3.6400    0.4850    0.0000 C   0  0  0
    0.8400    0.4850    0.0000 C   0  0  0
  1  2  1
  1  3  1
  2  5  1
  3  4  2
  4  6  1
  4  7  1
  5  8  1
  5  9  2
  8 10  2
M  ZZC   1 c1
M  ZZC   2 c2
M  ZZC   3 c3
M  ZZC   4 c4
M  ZZC   5 c5
M  ZZC   6 c6
M  ZZC   7 c7
M  ZZC   8 c8
M  ZZC   9 c9
M  ZZC  10 c10
M  ZZM   1 1
M  ZZI   1 100
M  ZZM   2 1
M  ZZI   2 100
M  ZZM   3 1
M  ZZI   3 100
M  ZZM   4 1
M  ZZI   4 100
M  ZZM   5 1
M  ZZI   5 100
M  ZZM   6 1
M  ZZI   6 100
M  ZZM   7 1
M  ZZI   7 100
M  ZZM   8 1
M  ZZI   8 100
M  ZZM   9 1
M  ZZI   9 100
M  ZZM  10 1
M  ZZI  10 100
M  END
> <molLogP>
3.909433

> <molLogS>
-2.805188

> <drugLikeness>
-1.379054

$$$$
Alpha-Terpineol
  MOLSOFT 04262021142D

 11 11  0  0  1  0  0  0  0  0999 V2000
   -1.8442   -0.2579    0.0000 O   0  0  0
    0.0682    0.2545    0.0000 C   0  0  2
   -1.1442    0.9545    0.0000 C   0  0  0
    1.2806    0.9545    0.0000 C   0  0  0
    0.0682   -1.1455    0.0000 C   0  0  0
    2.4931    0.2545    0.0000 C   0  0  0
    2.4931   -1.1455    0.0000 C   0  0  0
    1.2806   -1.8455    0.0000 C   0  0  0
   -0.4442    2.1670    0.0000 C   0  0  0
   -2.3567    1.6545    0.0000 C   0  0  0
    3.7055   -1.8455    0.0000 C   0  0  0
  1  3  1
  2  3  1  6
  2  4  1
  2  5  1
  3  9  1
  3 10  1
  4  6  1
  5  8  1
  6  7  1
  7  8  2
  7 11  1
M  ZZC   1 o1
M  ZZC   2 c1
M  ZZC   3 c2
M  ZZC   4 c3
M  ZZC   5 c4
M  ZZC   6 c5
M  ZZC   7 c6
M  ZZC   8 c7
M  ZZC   9 c8
M  ZZC  10 c9
M  ZZC  11 c10
M  ZZM   1 6
M  ZZI   1 50
M  ZZM   2 1
M  ZZI   2 100
M  ZZM   3 1
M  ZZI   3 100
M  ZZM   4 1
M  ZZI   4 100
M  ZZM   5 1
M  ZZI   5 100
M  ZZM   6 1
M  ZZI   6 100
M  ZZM   7 1
M  ZZI   7 100
M  ZZM   8 1
M  ZZI   8 100
M  ZZM   9 1
M  ZZI   9 100
M  ZZM  10 1
M  ZZI  10 100
M  ZZM  11 1
M  ZZI  11 100
M  END
> <molLogP>
2.953679

> <molLogS>
-1.983326

> <drugLikeness>
-1.047857

$$$$
Methyl cinnamate
  MOLSOFT 04262021142D

 12 12  0  0  0  0  0  0  0  0999 V2000
   -4.2000   -2.4249    0.0000 O   0  0  0
   -4.2000    0.0000    0.0000 O   0  0  0
    0.0000    0.0000    0.0000 C   0  0  0
    0.7000   -1.2124    0.0000 C   0  0  0
    0.7000    1.2124    0.0000 C   0  0  0
   -1.4000    0.0000    0.0000 C   0  0  0
    2.1000   -1.2124    0.0000 C   0  0  0
    2.1000    1.2124    0.0000 C   0  0  0
    2.8000    0.0000    0.0000 C   0  0  0
   -2.1000   -1.2124    0.0000 C   0  0  0
   -3.5000   -1.2124    0.0000 C   0  0  0
   -5.6000   -2.4249    0.0000 C   0  0  0
  1 11  1
  1 12  1
  2 11  2
  3  4  2
  3  5  1
  3  6  1
  4  7  1
  5  8  2
  6 10  2
  7  9  2
  8  9  1
 10 11  1
M  ZZC   1 o1
M  ZZC   2 o2
M  ZZC   3 c1
M  ZZC   4 c2
M  ZZC   5 c3
M  ZZC   6 c4
M  ZZC   7 c5
M  ZZC   8 c6
M  ZZC   9 c7
M  ZZC  10 c8
M  ZZC  11 c9
M  ZZC  12 c10
M  ZZM   1 6
M  ZZI   1 50
M  ZZM   2 6
M  ZZI   2 50
M  ZZM   3 1
M  ZZI   3 100
M  ZZM   4 1
M  ZZI   4 100
M  ZZM   5 1
M  ZZI   5 100
M  ZZM   6 1
M  ZZI   6 100
M  ZZM   7 1
M  ZZI   7 100
M  ZZM   8 1
M  ZZI   8 100
M  ZZM   9 1
M  ZZI   9 100
M  ZZM  10 1
M  ZZI  10 100
M  ZZM  11 1
M  ZZI  11 100
M  ZZM  12 1
M  ZZI  12 100
M  END
> <molLogP>
2.675681

> <molLogS>
-2.593134

> <drugLikeness>
-1.469077

$$$$
Geraniol
  MOLSOFT 04262021142D

 11 10  0  0  0  0  0  0  0  0999 V2000
    0.7636    5.0702    0.0000 O   0  0  0
    4.9636    2.6453    0.0000 C   0  0  0
    6.3636    2.6453    0.0000 C   0  0  0
    4.2636    3.8577    0.0000 C   0  0  0
    7.0636    1.4329    0.0000 C   0  0  0
    8.4636    1.4329    0.0000 C   0  0  0
    4.9636    5.0702    0.0000 C   0  0  0
    2.8636    3.8577    0.0000 C   0  0  0
    9.1636    2.6453    0.0000 C   0  0  0
    9.1636    0.2204    0.0000 C   0  0  0
    2.1636    5.0702    0.0000 C   0  0  0
  1 11  1
  2  3  1
  2  4  1
  3  5  1
  4  7  1
  8  4  2
  5  6  2
  6  9  1
  6 10  1
  8 11  1
M  ZZC   1 o1
M  ZZC   2 c1
M  ZZC   3 c2
M  ZZC   4 c3
M  ZZC   5 c4
M  ZZC   6 c5
M  ZZC   7 c6
M  ZZC   8 c7
M  ZZC   9 c8
M  ZZC  10 c9
M  ZZC  11 c10
M  ZZM   1 6
M  ZZI   1 50
M  ZZM   2 1
M  ZZI   2 100
M  ZZM   3 1
M  ZZI   3 100
M  ZZM   4 1
M  ZZI   4 100
M  ZZM   5 1
M  ZZI   5 100
M  ZZM   6 1
M  ZZI   6 100
M  ZZM   7 1
M  ZZI   7 100
M  ZZM   8 1
M  ZZI   8 100
M  ZZM   9 1
M  ZZI   9 100
M  ZZM  10 1
M  ZZI  10 100
M  ZZM  11 1
M  ZZI  11 100
M  END
> <molLogP>
3.326696

> <molLogS>
-2.548901

> <drugLikeness>
-1.166627

$$$$
cis_ocimene
  MOLSOFT 04262021142D

 11 10  0  0  0  0  0  0  0  0999 V2000
    9.0364    3.9680    0.0000 O   0  0  0
    4.8364    1.5431    0.0000 C   0  0  0
    2.7364    0.3307    0.0000 C   0  0  0
    4.1364    0.3307    0.0000 C   0  0  0
    6.2364    1.5431    0.0000 C   0  0  0
    2.0364    1.5431    0.0000 C   0  0  0
    2.0364   -0.8818    0.0000 C   0  0  0
    6.9364    2.7555    0.0000 C   0  0  0
    6.2364    3.9680    0.0000 C   0  0  0
    8.3364    2.7555    0.0000 C   0  0  0
    4.8364    3.9680    0.0000 C   0  0  0
  1 10  2
  2  4  1
  2  5  1
  3  4  2
  3  6  1
  3  7  1
  5  8  2
  8  9  1
  8 10  1
  9 11  2
M  ZZC   1 o1
M  ZZC   2 c1
M  ZZC   3 c2
M  ZZC   4 c3
M  ZZC   5 c4
M  ZZC   6 c5
M  ZZC   7 c6
M  ZZC   8 c7
M  ZZC   9 c8
M  ZZC  10 c9
M  ZZC  11 c10
M  ZZM   1 6
M  ZZI   1 50
M  ZZM   2 1
M  ZZI   2 100
M  ZZM   3 1
M  ZZI   3 100
M  ZZM   4 1
M  ZZI   4 100
M  ZZM   5 1
M  ZZI   5 100
M  ZZM   6 1
M  ZZI   6 100
M  ZZM   7 1
M  ZZI   7 100
M  ZZM   8 1
M  ZZI   8 100
M  ZZM   9 1
M  ZZI   9 100
M  ZZM  10 1
M  ZZI  10 100
M  ZZM  11 1
M  ZZI  11 100
M  END
> <molLogP>
3.028025

> <molLogS>
-2.639864

> <drugLikeness>
-1.898304

$$$$
Allicin - Garlic
  MOLSOFT 04262021142D

  9  8  0  0  0  0  0  0  0  0999 V2000
    2.1000    1.2124    0.0000 C   0  0  0
    3.5000    1.2124    0.0000 C   0  0  0
    1.4000    0.0000    0.0000 C   0  0  0
    4.2000    2.4249    0.0000 S   0  0  0
    5.6000    2.4249    0.0000 S   0  3  0
    6.3000    3.6373    0.0000 C   0  0  0
    7.7000    3.6373    0.0000 C   0  0  0
    8.4000    4.8497    0.0000 C   0  0  0
    6.3000    1.2124    0.0000 O   0  5  0
  4  5  1
  1  3  2
  5  6  1
  1  2  1
  6  7  1
  2  4  1
  7  8  2
  5  9  1
M  CHG  2   5   1   9  -1
M  END
> <molLogP>
2.963397

> <molLogS>
-1.191538

> <drugLikeness>
-1.271199

$$$$
Curcumin - Turmeric Extract
  MOLSOFT 04262021142D

 27 28  0  0  0  0  0  0  0  0999 V2000
    0.0000    0.0000    0.0000 C   0  0  0
    0.7000    1.2124    0.0000 C   0  0  0
    2.1000    1.2124    0.0000 C   0  0  0
    2.8000   -0.0000    0.0000 C   0  0  0
    2.1000   -1.2124    0.0000 C   0  0  0
    0.7000   -1.2124    0.0000 C   0  0  0
   -1.4000    0.0000    0.0000 O   0  0  0
   -2.1000   -1.2124    0.0000 C   0  0  0
   -0.0000    2.4249    0.0000 O   0  0  0
    2.8000   -2.4249    0.0000 C   0  0  0
    4.2000   -2.4249    0.0000 C   0  0  0
    4.9000   -3.6373    0.0000 C   0  0  0
    6.3000   -3.6373    0.0000 C   0  0  0
    4.2000   -4.8497    0.0000 O   0  0  0
    7.0000   -4.8497    0.0000 C   0  0  0
    8.4000   -4.8497    0.0000 C   0  0  0
    6.3000   -6.0622    0.0000 O   0  0  0
    9.1000   -6.0622    0.0000 C   0  0  0
   10.5000   -6.0622    0.0000 C   0  0  0
   11.2000   -4.8497    0.0000 C   0  0  0
   12.6000   -4.8497    0.0000 C   0  0  0
   13.3000   -6.0622    0.0000 C   0  0  0
   12.6000   -7.2746    0.0000 C   0  0  0
   11.2000   -7.2746    0.0000 C   0  0  0
   13.3000   -8.4870    0.0000 O   0  0  0
   14.7000   -8.4870    0.0000 C   0  0  0
   14.7000   -6.0622    0.0000 O   0  0  0
  1  2  2
 12 14  2
  1  7  1
 13 15  2
  3  4  2
 15 16  1
  7  8  1
 15 17  1
 18 16  2
  2  9  1
 18 19  1
  4  5  1
 19 20  2
  5 10  1
 20 21  1
  2  3  1
 21 22  2
 10 11  2
 22 23  1
  5  6  2
 23 24  2
 24 19  1
 11 12  1
 23 25  1
  6  1  1
 25 26  1
 12 13  1
 22 27  1
M  END
> <molLogP>
4.540072

> <molLogS>
-4.901494

> <drugLikeness>
-0.61183

$$$$
THEASINENSIN A - Joshanda
  MOLSOFT 04262021142D

 66 73  0  0  1  0  0  0  0  0999 V2000
    0.0000    0.0000    0.0000 O   0  0  0
    0.7000   -1.2124    0.0000 C   0  0  0
    2.1000   -1.2124    0.0000 C   0  0  0
    0.7000    1.2124    0.0000 C   0  0  1
    2.1000    1.2124    0.0000 C   0  0  1
   -0.0000    2.4249    0.0000 C   0  0  0
    4.2000    2.4249    0.0000 C   0  0  0
    2.8000   -0.0000    0.0000 C   0  0  0
    4.9000    3.6373    0.0000 C   0  0  0
    6.3000    6.0622    0.0000 C   0  0  0
   -1.4000    4.8497    0.0000 C   0  0  0
    2.8000    2.4249    0.0000 O   0  0  0
    2.8000   -2.4249    0.0000 C   0  0  0
   -0.0000    4.8497    0.0000 C   0  0  0
   -2.1000    3.6373    0.0000 C   0  0  0
    7.0000    4.8497    0.0000 C   0  0  0
    4.9000    6.0622    0.0000 C   0  0  0
    0.7000    3.6373    0.0000 C   0  0  0
   -1.4000    2.4249    0.0000 C   0  0  0
    0.0000   -2.4249    0.0000 C   0  0  0
    4.2000    4.8497    0.0000 C   0  0  0
    6.3000    3.6373    0.0000 C   0  0  0
    2.1000   -3.6373    0.0000 C   0  0  0
    0.7000   -3.6373    0.0000 C   0  0  0
    4.9000    1.2124    0.0000 O   0  0  0
    7.0000    7.2746    0.0000 O   0  0  0
   -2.1000    6.0622    0.0000 O   0  0  0
    4.2000   -2.4249    0.0000 O   0  0  0
   -3.5000    3.6373    0.0000 O   0  0  0
    4.2000    7.2746    0.0000 O   0  0  0
    0.7000    6.0622    0.0000 O   0  0  0
    8.4000    4.8497    0.0000 O   0  0  0
    0.0000   -4.8497    0.0000 O   0  0  0
   -2.1000    1.2124    0.0000 C   0  0  0
   -3.7145    4.1498    0.0000 O   0  0  0
   -4.7869    5.0497    0.0000 C   0  0  0
   -6.1025    4.5709    0.0000 C   0  0  0
   -3.9576    2.7711    0.0000 C   0  0  1
   -5.2731    2.2923    0.0000 C   0  0  1
   -3.4787    1.4555    0.0000 C   0  0  0
   -6.8318    0.4347    0.0000 C   0  0  0
   -6.3456    3.1922    0.0000 C   0  0  0
   -7.0749   -0.9440    0.0000 C   0  0  0
   -7.5611   -3.7015    0.0000 C   0  0  0
   -2.5211   -1.1756    0.0000 C   0  0  0
   -5.5162    0.9136    0.0000 O   0  0  0
   -7.1749    5.4708    0.0000 C   0  0  0
   -3.8998   -0.9325    0.0000 C   0  0  0
   -1.6212   -0.1031    0.0000 C   0  0  0
   -8.6336   -2.8016    0.0000 C   0  0  0
   -6.2456   -3.2226    0.0000 C   0  0  0
   -4.3786    0.3831    0.0000 C   0  0  0
   -4.5438    6.4285    0.0000 C   0  0  0
   -6.0024   -1.8439    0.0000 C   0  0  0
   -8.3905   -1.4228    0.0000 C   0  0  0
   -6.9318    6.8495    0.0000 C   0  0  0
   -5.6163    7.3284    0.0000 C   0  0  0
   -7.9043    1.3346    0.0000 O   0  0  0
   -7.8042   -5.0802    0.0000 O   0  0  0
   -2.0422   -2.4912    0.0000 O   0  0  0
   -8.4905    4.9920    0.0000 O   0  0  0
   -0.2424   -0.3462    0.0000 O   0  0  0
   -5.1731   -4.1225    0.0000 O   0  0  0
   -4.7997   -2.0049    0.0000 O   0  0  0
   -9.9492   -3.2804    0.0000 O   0  0  0
   -5.3732    8.7071    0.0000 O   0  0  0
  8  3  1
 14 11  1
 23 13  1
 17 10  2
 19 34  1
  2  1  1
  3  2  1
  4  1  1
  5  4  1
  4  6  1  6
  7 12  1
  5  8  1
  9  7  1
 10 16  1
 11 15  2
  5 12  1  6
 13  3  2
 14 18  2
 15 19  1
 16 22  2
 17 21  1
 18  6  1
 19  6  2
 20  2  2
 21  9  2
 22  9  1
 23 24  2
 24 20  1
 25  7  2
 26 10  1
 27 11  1
 28 13  1
 29 15  1
 30 17  1
 31 14  1
 32 16  1
 33 24  1
 36 35  1
 37 36  1
 38 35  1
 39 38  1
 38 40  1  6
 41 46  1
 39 42  1
 43 41  1
 44 50  1
 45 49  2
 39 46  1  6
 47 37  2
 48 52  2
 49 34  1
 50 55  2
 51 54  1
 52 40  1
 34 40  2
 53 36  2
 54 43  2
 55 43  1
 56 57  2
 57 53  1
 58 41  2
 59 44  1
 60 45  1
 61 47  1
 62 49  1
 63 51  1
 64 48  1
 65 50  1
 66 57  1
 42 37  1
 48 45  1
 56 47  1
 51 44  2
M  END
> <molLogP>
4.624472

> <molLogS>
-6.77507

> <drugLikeness>
0.023744

$$$$
Theaflavin
  MOLSOFT 04262021142D

 28 31  0  0  1  0  0  0  0  0999 V2000
    0.0000    0.0000    0.0000 C   0  0  0
    0.7000    1.2124    0.0000 C   0  0  0
    2.1000    1.2124    0.0000 C   0  0  0
    0.7000   -1.2124    0.0000 C   0  0  0
    2.1000   -1.2124    0.0000 C   0  0  0
    2.8000   -0.0000    0.0000 C   0  0  0
    4.2000   -0.0000    0.0000 C   0  0  0
    4.9000   -1.2124    0.0000 C   0  0  2
    4.2000   -2.4249    0.0000 C   0  0  2
    2.8000   -2.4249    0.0000 O   0  0  0
    6.3000   -1.2124    0.0000 O   0  0  0
   -1.4000    0.0000    0.0000 O   0  0  0
    2.8000    2.4249    0.0000 O   0  0  0
    4.9000   -3.6373    0.0000 C   0  0  0
    6.3000   -6.0622    0.0000 C   0  0  0
    4.9000   -6.0622    0.0000 C   0  0  0
    4.2000   -4.8497    0.0000 C   0  0  0
    6.3000   -3.6373    0.0000 C   0  0  0
    7.0000   -4.8497    0.0000 C   0  0  0
    8.3844   -5.0584    0.0000 C   0  0  0
    6.8115   -2.3341    0.0000 C   0  0  0
    9.4106   -4.1062    0.0000 C   0  0  0
    8.1493   -1.9214    0.0000 C   0  0  0
    9.3060   -2.7101    0.0000 C   0  0  0
   10.7139   -4.6176    0.0000 O   0  0  0
    8.7970   -6.3962    0.0000 O   0  0  0
    4.2000   -7.2746    0.0000 O   0  0  0
    7.0000   -7.2746    0.0000 O   0  0  0
  1  2  2
  2  3  1
  3  6  2
  5  4  2
  4  1  1
  5  6  1
  5 10  1
  6  7  1
  8  7  1
  8  9  1
  9 10  1
  8 11  1  1
  1 12  1
  3 13  1
 14 18  1
 19 15  1
 15 16  2
 16 17  1
 17 14  2
 18 19  2
 19 20  1
 18 21  1
 20 22  1
 21 23  2
 22 24  2
 23 24  1
 22 25  1
 20 26  2
 16 27  1
 15 28  1
  9 14  1  1
M  END
> <molLogP>
1.892323

> <molLogS>
-4.31552

> <drugLikeness>
0.258259

$$$$
Eucalyptanoid - Joshanda
  MOLSOFT 04262021142D

 35 39  0  0  1  0  0  0  0  0999 V2000
    0.0000    0.0000    0.0000 C   0  0  1
    0.7000    1.2124    0.0000 C   0  0  0
    2.1000    1.2124    0.0000 C   0  0  0
    0.7000   -1.2124    0.0000 C   0  0  0
    2.1000   -1.2124    0.0000 C   0  0  2
    2.8000   -2.4249    0.0000 C   0  0  0
    4.2000   -2.4249    0.0000 C   0  0  0
    4.9000   -1.2124    0.0000 C   0  0  1
    5.6000   -2.4249    0.0000 C   0  0  0
    6.3000   -1.2124    0.0000 C   0  0  2
    5.6000   -2.4249    0.0000 C   0  0  0
    7.0000   -2.4249    0.0000 C   0  0  0
    8.4000   -2.4249    0.0000 C   0  0  0
    9.1000   -1.2124    0.0000 C   0  0  1
    9.8000   -2.4249    0.0000 C   0  0  0
   10.5000   -1.2124    0.0000 C   0  0  0
   11.2000   -0.0000    0.0000 C   0  0  0
   10.5000    1.2124    0.0000 C   0  0  0
    9.1000    1.2124    0.0000 C   0  0  0
    8.4000   -0.0000    0.0000 C   0  0  2
    7.0000   -0.0000    0.0000 C   0  0  0
    6.3000    1.2124    0.0000 C   0  0  0
    4.9000    1.2124    0.0000 C   0  0  0
    4.2000   -0.0000    0.0000 C   0  0  0
    2.8000   -0.0000    0.0000 C   0  0  1
    3.5000    1.2124    0.0000 C   0  0  0
    7.9333    0.8083    0.0000 H   0  0  0
   -1.4000    0.0000    0.0000 O   0  0  0
    1.6333   -2.0207    0.0000 H   0  0  0
   -0.6156   -1.6913    0.0000 C   0  0  0
    0.9431   -2.5912    0.0000 C   0  0  0
    9.1000   -3.6373    0.0000 O   0  0  0
   11.2000   -2.4249    0.0000 O   0  0  0
   11.8156    1.6913    0.0000 C   0  0  0
   10.2569    2.5912    0.0000 C   0  0  0
  8 10  1
 10 11  1  6
 10 12  1
 12 13  1
 14 13  1
 14 15  1  1
 14 16  1
 16 17  1
 17 18  1
 18 19  1
 20 19  1
 14 20  1
 20 21  1
 10 21  1
 21 22  2
 22 23  1
 23 24  2
  8 24  1
 25 24  1
 25  3  1
  5 25  1
 25 26  1  1
 20 27  1  6
  1  2  1
  1 28  1  1
  2  3  1
  5 29  1  6
  1  4  1
  4 30  1
  5  4  1
  4 31  1
  5  6  1
 15 32  2
  6  7  1
 15 33  1
  8  7  1
 18 34  1
  8  9  1  1
 18 35  1
M  END
> <molLogP>
7.565485

> <molLogS>
-7.655722

> <drugLikeness>
-0.075685

$$$$
Saikosaponin A - Inhibits Viral Attachment
  MOLSOFT 04262021142D

 58 65  0  0  1  0  0  0  0  0999 V2000
    2.8000   -2.4249    0.0000 O   0  0  0
   -0.0000   -2.4249    0.0000 O   0  0  0
   -1.4000    0.0000    0.0000 O   0  0  0
    0.0000    0.0000    0.0000 C   0  0  1
    0.7000   -1.2124    0.0000 C   0  0  1
    2.1000   -1.2124    0.0000 C   0  0  2
    2.8000   -0.0000    0.0000 C   0  0  2
    4.2000   -0.0000    0.0000 O   0  0  0
    2.1000    1.2124    0.0000 C   0  0  2
    0.7000    1.2124    0.0000 O   0  0  0
    2.8000    2.4249    0.0000 C   0  0  0
    2.1000    3.6373    0.0000 O   0  0  0
   -5.6000    2.4249    0.0000 O   0  0  0
   -4.2000    2.4249    0.0000 C   0  0  1
   -3.5000    1.2124    0.0000 C   0  0  2
   -4.2000    0.0000    0.0000 O   0  0  0
   -2.1000    1.2124    0.0000 C   0  0  2
   -1.4000    2.4249    0.0000 C   0  0  1
    0.0000    2.4249    0.0000 O   0  0  0
   -2.1000    3.6373    0.0000 C   0  0  2
   -3.5000    3.6373    0.0000 O   0  0  0
   -1.4000    4.8497    0.0000 C   0  0  0
   -7.7000    1.2124    0.0000 C   0  0  0
   -6.3000    1.2124    0.0000 C   0  0  1
   -5.6000    0.0000    0.0000 C   0  0  2
   -8.4000    0.0000    0.0000 C   0  0  0
   -7.7000   -1.2124    0.0000 C   0  0  1
   -6.3000   -1.2124    0.0000 C   0  0  1
   -5.6000   -2.4249    0.0000 C   0  0  0
   -6.3000   -3.6373    0.0000 C   0  0  0
   -8.4000   -2.4249    0.0000 C   0  0  2
   -7.7000   -3.6373    0.0000 C   0  0  2
  -10.5000   -3.6373    0.0000 C   0  0  0
   -9.8000   -2.4249    0.0000 C   0  0  0
   -9.8000   -4.8497    0.0000 C   0  0  1
   -8.4000   -4.8497    0.0000 C   0  0  1
   -7.7000   -6.0622    0.0000 C   0  0  0
   -8.4000   -7.2746    0.0000 C   0  0  1
  -10.5000   -6.0622    0.0000 C   0  0  1
   -9.8000   -7.2746    0.0000 C   0  0  2
   -8.2292   -7.9121    0.0000 C   0  0  0
   -7.5292   -6.6997    0.0000 C   0  0  0
   -8.2292   -5.4872    0.0000 C   0  0  0
   -9.6292   -5.4872    0.0000 C   0  0  0
   -4.5275   -0.8999    0.0000 C   0  0  0
   -3.2120   -0.4211    0.0000 O   0  0  0
   -4.5275    0.8999    0.0000 C   0  0  0
   -9.1000   -1.2124    0.0000 C   0  0  0
   -7.0000   -4.8497    0.0000 C   0  0  0
   -7.7000   -8.4870    0.0000 O   0  0  0
   -6.9136   -5.0084    0.0000 C   0  0  0
   -8.4723   -4.1085    0.0000 C   0  0  0
   -5.3667   -1.2124    0.0000 H   0  0  0
   -8.8667   -1.6166    0.0000 H   0  0  0
   -8.8667   -4.0415    0.0000 H   0  0  0
  -11.6391   -5.3622    0.0000 O   0  0  0
  -11.6391   -6.7622    0.0000 C   0  0  0
   -9.8601   -5.3827    0.0000 H   0  0  0
  5  6  1
 27 31  1
 28 29  1
 29 30  1
 32 30  1
 31 32  1
  6  1  1  6
  6  7  1
  7  8  1  1
  7  9  1
 31 34  1
 32 36  1
 35 33  1  1
 33 34  2
 35 36  1
  9 10  1
 14 13  1  6
 14 15  1
 15 16  1  1
 35 39  1
 36 37  1
 38 37  1
 38 40  1
 39 40  1
 15 17  1
 17  3  1  6
 17 18  1
 18 19  1  6
 18 20  1
 20 21  1
 39 44  1
 40 41  1  1
 41 42  1
 42 43  1
 43 44  1
 20 22  1  6
 25 45  1
 14 21  1
 45 46  1
 24 13  1  6
 24 23  1
 25 47  1  6
  9 11  1  6
 27 48  1  6
 11 12  1
 32 49  1  6
  4 10  1
 38 50  1  6
 43 51  1
 23 26  1
 43 52  1
 24 25  1
 28 53  1  1
 25 28  1
 31 54  1  1
 27 26  1
 36 55  1  1
 27 28  1
  4  3  1  6
 35 56  1
  4  5  1
 40 57  1
 57 56  1
  5  2  1  1
 39 58  1  1
M  END
> <molLogP>
1.227108

> <molLogS>
-6.904238

> <drugLikeness>
-0.437379

$$$$
lycorine - AVM Unclear
  MOLSOFT 04262021142D

 23 27  0  0  1  0  0  0  0  0999 V2000
    0.0000    0.0000    0.0000 C   0  0  0
    0.7000    1.2124    0.0000 C   0  0  0
    2.1000    1.2124    0.0000 C   0  0  0
    2.8000   -0.0000    0.0000 C   0  0  0
    2.1000   -1.2124    0.0000 C   0  0  0
    0.7000   -1.2124    0.0000 C   0  0  0
    0.0000   -2.4249    0.0000 C   0  0  1
    0.7000   -3.6373    0.0000 C   0  0  2
    2.1000   -3.6373    0.0000 N   0  0  0
    2.8000   -2.4249    0.0000 C   0  0  0
    2.5326    2.5439    0.0000 O   0  0  0
    1.4000    3.3668    0.0000 C   0  0  0
    0.2674    2.5439    0.0000 O   0  0  0
   -1.4287   -2.6419    0.0000 C   0  0  1
   -1.9981   -3.9209    0.0000 C   0  0  2
   -1.1752   -5.0535    0.0000 C   0  0  0
    0.2674   -4.9688    0.0000 C   0  0  0
    1.4000   -5.7917    0.0000 C   0  0  0
    2.5326   -4.9688    0.0000 C   0  0  0
    1.2486   -4.3924    0.0000 H   0  0  0
   -0.5262   -1.6540    0.0000 H   0  0  0
   -2.2774   -1.5285    0.0000 O   0  0  0
   -3.3904   -4.0672    0.0000 O   0  0  0
  1  2  1
  1  6  2
  3  4  1
  4  5  2
 10  5  1
  5  6  1
  7  6  1
  8  9  1
  9 10  1
  3 11  1
  2  3  2
  2 13  1
 11 12  1
 12 13  1
  7 14  1
  8  7  1
  8 17  1
 14 15  1
 15 16  1
 16 17  2
 17 18  1
 18 19  1
  9 19  1
  8 20  1  1
  7 21  1  6
 14 22  1  1
 15 23  1  6
M  END
> <molLogP>
0.040509

> <molLogS>
-3.920781

> <drugLikeness>
-0.255583

$$$$
Artemisin - AVM Unclear
  MOLSOFT 04262021142D

 23 26  0  0  1  0  0  0  0  0999 V2000
    0.0000    0.0000    0.0000 C   0  0  3
   -1.4000   -0.0000    0.0000 C   0  0  2
    0.7000   -1.2124    0.0000 C   0  0  2
   -2.1000   -1.2124    0.0000 O   0  0  0
   -1.4000   -2.4249    0.0000 C   0  0  0
    1.1667    1.6791    0.0000 O   0  0  0
   -2.1000    1.2124    0.0000 O   0  0  0
    0.7000    1.2124    0.0000 C   0  0  1
   -1.4000    2.4249    0.0000 C   0  0  1
   -0.0000   -2.4249    0.0000 C   0  0  2
    0.0000    2.4249    0.0000 O   0  0  0
    2.1000   -1.2124    0.0000 C   0  0  0
    0.7837    2.3823    0.0000 C   0  0  0
   -2.1000   -3.6373    0.0000 O   0  0  0
    2.1000    1.2124    0.0000 C   0  0  1
    2.8000   -0.0000    0.0000 C   0  0  0
   -0.4287    3.0823    0.0000 C   0  0  0
   -2.4247    3.3788    0.0000 C   0  0  0
    0.7000   -3.6373    0.0000 C   0  0  0
    2.8000    2.4249    0.0000 C   0  0  0
    1.3831    1.8484    0.0000 H   0  0  0
    1.1667   -2.0207    0.0000 H   0  0  0
   -2.3333    0.0000    0.0000 H   0  0  0
  2  1  1
  3  1  1
  2  4  1
 10  5  1
  1  6  1
  2  7  1
  8  1  1
  9 11  1
 10  3  1
 11  6  1
  3 12  1
  8 13  1
 14  5  2
 15  8  1
 15 16  1
 17 13  1
  9 18  1  1
 10 19  1  1
 15 20  1  6
  8 21  1  6
  3 22  1  6
  2 23  1  1
 16 12  1
  9 17  1
  9  7  1
  5  4  1
M  END
> <molLogP>
2.604436

> <molLogS>
-2.244603

> <drugLikeness>
-1.21908

$$$$
Isatin - AVM 3CL PI
  MOLSOFT 04262021142D

 11 12  0  0  0  0  0  0  0  0999 V2000
   -1.4000   -0.0000    0.0000 O   0  0  0
   -0.0000   -0.0000    0.0000 C   0  0  0
    0.8229    1.1326    0.0000 N   0  0  0
    2.1544    0.7000    0.0000 C   0  0  0
    3.3668    1.4000    0.0000 C   0  0  0
    4.5792    0.7000    0.0000 C   0  0  0
    4.5792   -0.7000    0.0000 C   0  0  0
    3.3668   -1.4000    0.0000 C   0  0  0
    2.1544   -0.7000    0.0000 C   0  0  0
    0.8229   -1.1326    0.0000 C   0  0  0
    0.3903   -2.4641    0.0000 O   0  0  0
  1  2  2
  2  3  1
  3  4  1
  4  5  2
  5  6  1
  6  7  2
  7  8  1
  8  9  2
  4  9  1
  9 10  1
  2 10  1
 10 11  2
M  END
> <molLogP>
1.226139

> <molLogS>
-3.06279

> <drugLikeness>
-0.687623

$$$$
Amentoflavone - AVM 3CL PI
  MOLSOFT 04262021142D

 40 45  0  0  0  0  0  0  0  0999 V2000
    0.0000    0.0000    0.0000 C   0  0  0
    0.7000    1.2124    0.0000 C   0  0  0
   -1.4000    0.0000    0.0000 C   0  0  0
    0.7000   -1.2124    0.0000 O   0  0  0
   -0.0000   -7.2746    0.0000 C   0  0  0
    2.1000    1.2124    0.0000 C   0  0  0
    0.7000   -6.0622    0.0000 C   0  0  0
   -2.1000   -1.2124    0.0000 C   0  0  0
    2.1000   -1.2124    0.0000 C   0  0  0
   -1.4000   -4.8497    0.0000 C   0  0  0
    2.8000   -0.0000    0.0000 C   0  0  0
   -0.0000   -4.8497    0.0000 C   0  0  0
   -1.4000   -7.2746    0.0000 C   0  0  0
   -2.1000   -6.0622    0.0000 O   0  0  0
    0.0000    2.4249    0.0000 C   0  0  0
   -2.1000    1.2124    0.0000 C   0  0  0
    0.7000   -8.4870    0.0000 C   0  0  0
   -1.4000    2.4249    0.0000 C   0  0  0
   -1.4000   -2.4249    0.0000 C   0  0  0
   -2.1000   -3.6373    0.0000 C   0  0  0
   -2.1000   -8.4870    0.0000 C   0  0  0
   -0.0000   -9.6995    0.0000 C   0  0  0
    2.8000   -2.4249    0.0000 C   0  0  0
   -3.5000   -1.2124    0.0000 C   0  0  0
   -1.4000   -9.6995    0.0000 C   0  0  0
    2.8000    2.4249    0.0000 O   0  0  0
    2.1000   -6.0622    0.0000 O   0  0  0
   -3.5000   -3.6373    0.0000 C   0  0  0
   -4.2000   -2.4249    0.0000 C   0  0  0
    4.2000   -2.4249    0.0000 C   0  0  0
    2.1000   -3.6373    0.0000 C   0  0  0
    0.7000    3.6373    0.0000 O   0  0  0
   -3.5000    1.2124    0.0000 O   0  0  0
    2.1000   -8.4871    0.0000 O   0  0  0
    4.2000   -4.8497    0.0000 C   0  0  0
    2.8000   -4.8497    0.0000 C   0  0  0
    4.9000   -3.6373    0.0000 C   0  0  0
   -4.2000    0.0000    0.0000 O   0  0  0
   -2.1000  -10.9119    0.0000 O   0  0  0
    4.9000   -6.0622    0.0000 O   0  0  0
  2  1  1
  3  1  2
  4  1  1
  5 13  2
  6  2  1
  7 12  1
  8  3  1
  9  4  1
 10 20  1
 11  9  2
 12 10  2
 13 14  1
 14 10  1
 15  2  2
 16  3  1
 17  5  1
 18 16  2
 19  8  1
 20 19  2
 21 13  1
 22 25  1
 23  9  1
 24  8  2
 25 21  2
 26  6  2
 27  7  2
 28 29  2
 29 24  1
 30 23  1
 31 23  2
 32 15  1
 33 16  1
 34 17  1
 35 36  2
 36 31  1
 37 30  2
 38 24  1
 39 25  1
 40 35  1
  6 11  1
 15 18  1
 37 35  1
 20 28  1
  5  7  1
 22 17  2
M  END
> <molLogP>
5.706784

> <molLogS>
-8.421924

> <drugLikeness>
0.186553

$$$$
Myricetin - AVM Helicase Inhibitor
  MOLSOFT 04262021142D

 23 25  0  0  0  0  0  0  0  0999 V2000
   -1.4000    0.0000    0.0000 O   0  0  0
    0.0000    0.0000    0.0000 C   0  0  0
    0.7000   -1.2124    0.0000 C   0  0  0
    2.1000   -1.2124    0.0000 C   0  0  0
    2.8000   -2.4249    0.0000 O   0  0  0
    2.8000   -0.0000    0.0000 C   0  0  0
    4.2000    0.0000    0.0000 C   0  0  0
    4.9000   -1.2124    0.0000 O   0  0  0
    4.9000    1.2124    0.0000 C   0  0  0
    6.3000    1.2124    0.0000 O   0  0  0
    4.2000    2.4249    0.0000 C   0  0  0
    2.8000    2.4249    0.0000 O   0  0  0
    2.1000    1.2124    0.0000 C   0  0  0
    0.7000    1.2124    0.0000 C   0  0  0
    4.9000    3.6373    0.0000 C   0  0  0
    6.3000    3.6373    0.0000 C   0  0  0
    7.0000    4.8497    0.0000 C   0  0  0
    8.4000    4.8497    0.0000 O   0  0  0
    6.3000    6.0622    0.0000 C   0  0  0
    7.0000    7.2746    0.0000 O   0  0  0
    4.9000    6.0622    0.0000 C   0  0  0
    4.2000    7.2746    0.0000 O   0  0  0
    4.2000    4.8497    0.0000 C   0  0  0
  1  2  1
  2  3  2
  3  4  1
  4  5  1
  4  6  2
  6  7  1
  7  8  2
  7  9  1
  9 10  1
  9 11  2
 11 12  1
 12 13  1
  6 13  1
 13 14  2
  2 14  1
 11 15  1
 15 16  2
 16 17  1
 17 18  1
 17 19  2
 19 20  1
 19 21  1
 21 22  1
 21 23  2
 15 23  1
M  END
> <molLogP>
1.731505

> <molLogS>
-3.286272

> <drugLikeness>
-0.239549

$$$$
scutellarein - AVM Helicase Inhibitor
  MOLSOFT 04262021142D

 21 23  0  0  0  0  0  0  0  0999 V2000
    0.0000    0.0000    0.0000 C   0  0  0
   -1.4000   -0.0000    0.0000 C   0  0  0
    0.7000    1.2124    0.0000 C   0  0  0
    0.7000   -1.2124    0.0000 C   0  0  0
   -1.4000   -2.4249    0.0000 C   0  0  0
   -2.1000   -1.2124    0.0000 C   0  0  0
   -0.0000   -2.4249    0.0000 O   0  0  0
    2.1000    1.2124    0.0000 C   0  0  0
    2.1000   -1.2124    0.0000 C   0  0  0
    2.8000   -0.0000    0.0000 C   0  0  0
   -2.1000   -3.6373    0.0000 C   0  0  0
   -2.1000    1.2124    0.0000 O   0  0  0
   -0.0000    2.4249    0.0000 O   0  0  0
   -1.4000   -4.8497    0.0000 C   0  0  0
   -3.5000   -3.6373    0.0000 C   0  0  0
    2.8000    2.4249    0.0000 O   0  0  0
    4.2000   -0.0000    0.0000 O   0  0  0
   -3.5000   -6.0622    0.0000 C   0  0  0
   -4.2000   -4.8497    0.0000 C   0  0  0
   -2.1000   -6.0622    0.0000 C   0  0  0
   -4.2000   -7.2746    0.0000 O   0  0  0
  2  1  1
  3  1  2
  4  1  1
  5  7  1
  6  2  1
  7  4  1
  8  3  1
  9  4  2
 10  9  1
 11  5  1
 12  2  2
 13  3  1
 14 11  1
 15 11  2
 16  8  1
 17 10  1
 18 19  2
 19 15  1
 20 14  2
 21 18  1
  6  5  2
  8 10  2
 20 18  1
M  END
> <molLogP>
2.559287

> <molLogS>
-3.241522

> <drugLikeness>
0.427815

$$$$
Houttuynin - AVM 3CL PI and Polymerase Inhibitor
  MOLSOFT 04262021142D

 14 13  0  0  0  0  0  0  0  0999 V2000
    1.4000    0.0000    0.0000 C   0  0  0
    2.1000    1.2124    0.0000 C   0  0  0
    3.5000    1.2124    0.0000 C   0  0  0
    4.2000    2.4249    0.0000 C   0  0  0
    5.6000    2.4249    0.0000 C   0  0  0
    6.3000    3.6373    0.0000 C   0  0  0
    7.7000    3.6373    0.0000 C   0  0  0
    8.4000    4.8497    0.0000 C   0  0  0
    9.8000    4.8497    0.0000 C   0  0  0
   10.5000    6.0622    0.0000 C   0  0  0
   11.9000    6.0622    0.0000 C   0  0  0
   12.6000    7.2746    0.0000 C   0  0  0
    9.8000    7.2746    0.0000 O   0  0  0
   14.0000    7.2746    0.0000 O   0  0  0
  3  4  1
  7  8  1
  8  9  1
  4  5  1
  9 10  1
  2  3  1
 10 11  1
  5  6  1
 11 12  1
  1  2  1
 10 13  2
  6  7  1
 12 14  2
M  END
> <molLogP>
3.465103

> <molLogS>
-3.349494

> <drugLikeness>
-1.203842

$$$$
Apigenin from Ocimum Bacilium - AVM Viral Replication Inhibitor
  MOLSOFT 04262021142D

 20 22  0  0  0  0  0  0  0  0999 V2000
    0.0000    0.0000    0.0000 C   0  0  0
    0.7000    1.2124    0.0000 C   0  0  0
    2.1000    1.2124    0.0000 C   0  0  0
    2.8000    2.4249    0.0000 O   0  0  0
    2.8000   -0.0000    0.0000 C   0  0  0
    2.1000   -1.2124    0.0000 C   0  0  0
    0.7000   -1.2124    0.0000 C   0  0  0
   -0.0000   -2.4249    0.0000 C   0  0  0
   -1.4000   -2.4249    0.0000 O   0  0  0
    0.7000   -3.6373    0.0000 C   0  0  0
    0.0000   -4.8497    0.0000 C   0  0  0
    0.7000   -6.0622    0.0000 O   0  0  0
   -1.4000   -4.8497    0.0000 C   0  0  0
   -2.1000   -3.6373    0.0000 C   0  0  0
   -3.5000   -3.6373    0.0000 C   0  0  0
   -4.2000   -4.8497    0.0000 C   0  0  0
   -5.6000   -4.8497    0.0000 O   0  0  0
   -3.5000   -6.0622    0.0000 C   0  0  0
   -2.1000   -6.0622    0.0000 C   0  0  0
   -1.4000   -7.2746    0.0000 O   0  0  0
  1  2  2
  1  7  1
  2  3  1
  3  4  1
  3  5  2
  5  6  1
  6  7  2
  7  8  1
  8  9  1
  8 10  2
  9 14  1
 10 11  1
 11 12  2
 11 13  1
 13 14  2
 13 19  1
 14 15  1
 15 16  2
 16 17  1
 16 18  1
 18 19  2
 19 20  1
M  END
> <molLogP>
3.058746

> <molLogS>
-4.156036

> <drugLikeness>
0.393933

$$$$
Ursolic Acid - AVM Replication Inhibitor
  MOLSOFT 04262021142D

 36 40  0  0  1  0  0  0  0  0999 V2000
    0.0000    0.0000    0.0000 C   0  0  0
    0.7000   -1.2124    0.0000 C   0  0  1
    2.1000   -1.2124    0.0000 C   0  0  0
    0.7000    1.2124    0.0000 C   0  0  0
    2.1000    1.2124    0.0000 C   0  0  1
    2.8000   -0.0000    0.0000 C   0  0  1
    4.2000    0.0000    0.0000 C   0  0  0
    4.9000    1.2124    0.0000 C   0  0  0
    2.8000    2.4249    0.0000 C   0  0  2
    4.2000    2.4249    0.0000 C   0  0  2
    2.8000    4.8497    0.0000 C   0  0  0
    2.1000    3.6373    0.0000 C   0  0  0
    4.2000    4.8497    0.0000 C   0  0  0
    4.9000    3.6373    0.0000 C   0  0  1
    6.3000    3.6373    0.0000 C   0  0  0
    7.0000    4.8497    0.0000 C   0  0  0
    4.9000    6.0622    0.0000 C   0  0  1
    6.3000    6.0622    0.0000 C   0  0  2
    7.0000    7.2746    0.0000 C   0  0  0
    6.3000    8.4870    0.0000 C   0  0  0
    4.9000    8.4870    0.0000 C   0  0  2
    4.2000    7.2746    0.0000 C   0  0  2
    1.8569   -2.5912    0.0000 C   0  0  0
    3.4156   -1.6913    0.0000 C   0  0  0
    3.2667   -0.8083    0.0000 H   0  0  0
    1.4000    2.4249    0.0000 C   0  0  0
    5.6000    2.4249    0.0000 C   0  0  0
    3.9667    6.0622    0.0000 H   0  0  0
    2.8000    7.2746    0.0000 C   0  0  0
    3.2667    1.6166    0.0000 H   0  0  0
    4.2000    9.6995    0.0000 C   0  0  0
    5.6000    2.4249    0.0000 C   0  0  0
    7.7000    6.0622    0.0000 C   0  0  0
    8.4000    4.8497    0.0000 O   0  0  0
    8.4000    7.2746    0.0000 O   0  0  0
   -0.0000   -2.4249    0.0000 O   0  0  0
 11 12  1
 14 13  1
  1  4  1
 17 13  1
 14 15  1
 15 16  1
 18 16  1
 17 18  1
  2  3  1
  6  3  1
  5  4  1
  5  6  1
 17 22  1
 18 19  1
 19 20  1
 21 20  1
 21 22  1
  3 23  1
  3 24  1
  5  9  1
  6 25  1  6
  6  7  1
  5 26  1  1
  7  8  1
 10 27  1  1
 10  8  1
 17 28  1  1
  9 10  1
 22 29  1  1
  9 30  1  6
 21 31  1  6
  2  1  1
 14 32  1  6
 18 33  1  1
  9 12  1
 33 34  2
 10 14  1
 33 35  1
 13 11  2
  2 36  1  1
M  END
> <molLogP>
7.836699

> <molLogS>
-6.990736

> <drugLikeness>
0.655289

$$$$
Baicalein - AVM Entry and Replication Inhibitor
  MOLSOFT 04262021142D

 20 22  0  0  0  0  0  0  0  0999 V2000
    0.0000    0.0000    0.0000 C   0  0  0
   -1.4000   -0.0000    0.0000 C   0  0  0
    0.7000    1.2124    0.0000 C   0  0  0
    0.7000   -1.2124    0.0000 C   0  0  0
   -2.1000   -1.2124    0.0000 C   0  0  0
   -1.4000   -2.4249    0.0000 C   0  0  0
   -0.0000   -2.4249    0.0000 O   0  0  0
    2.1000    1.2124    0.0000 C   0  0  0
    2.1000   -1.2124    0.0000 C   0  0  0
    2.8000   -0.0000    0.0000 C   0  0  0
   -2.1000    1.2124    0.0000 O   0  0  0
   -2.1000   -3.6373    0.0000 C   0  0  0
   -0.0000    2.4249    0.0000 O   0  0  0
    2.8000    2.4249    0.0000 O   0  0  0
    4.2000   -0.0000    0.0000 O   0  0  0
   -1.4000   -4.8497    0.0000 C   0  0  0
   -3.5000   -3.6373    0.0000 C   0  0  0
   -4.2000   -4.8497    0.0000 C   0  0  0
   -2.1000   -6.0622    0.0000 C   0  0  0
   -3.5000   -6.0622    0.0000 C   0  0  0
  2  1  1
  3  1  2
  4  1  1
  5  2  1
  6  7  1
  7  4  1
  8  3  1
  9  4  2
 10  9  1
 11  2  2
 12  6  1
 13  3  1
 14  8  1
 15 10  1
 16 12  1
 17 12  2
 18 17  1
 19 16  2
 20 18  2
  8 10  2
  5  6  2
 19 20  1
M  END
> <molLogP>
2.818712

> <molLogS>
-3.385135

> <drugLikeness>
-0.101671

$$$$
Quercetin - AVM Replication Inhibitor
  MOLSOFT 04262021142D

 22 24  0  0  0  0  0  0  0  0999 V2000
    0.0000    0.0000    0.0000 C   0  0  0
    0.7000    1.2124    0.0000 C   0  0  0
    2.1000    1.2124    0.0000 C   0  0  0
    2.8000   -0.0000    0.0000 C   0  0  0
    2.1000   -1.2124    0.0000 C   0  0  0
    0.7000   -1.2124    0.0000 C   0  0  0
    2.8000    2.4249    0.0000 C   0  0  0
    4.2000    2.4249    0.0000 C   0  0  0
    4.9000    1.2124    0.0000 C   0  0  0
    6.3000    1.2124    0.0000 C   0  0  0
    7.0000    2.4249    0.0000 C   0  0  0
    8.4000    2.4249    0.0000 C   0  0  0
    9.1000    1.2124    0.0000 C   0  0  0
    8.4000    0.0000    0.0000 C   0  0  0
    7.0000    0.0000    0.0000 C   0  0  0
    4.2000    0.0000    0.0000 O   0  0  0
    2.1000    3.6373    0.0000 O   0  0  0
    9.1000   -1.2124    0.0000 O   0  0  0
   10.5000    1.2124    0.0000 O   0  0  0
    4.9000    3.6373    0.0000 O   0  0  0
   -0.0000   -2.4249    0.0000 O   0  0  0
   -0.0000    2.4249    0.0000 O   0  0  0
  1  2  2
  1  6  1
  2  3  1
  2 22  1
  3  4  2
  3  7  1
  4  5  1
  4 16  1
  5  6  2
  6 21  1
  7  8  1
  7 17  2
  8  9  2
  8 20  1
  9 10  1
  9 16  1
 10 11  2
 10 15  1
 11 12  1
 12 13  2
 13 14  1
 13 19  1
 14 15  2
 14 18  1
M  END
> <molLogP>
2.110946

> <molLogS>
-3.86785

> <drugLikeness>
0.516083

$$$$
Narasin - AVM Inhibits Protein Synthesis
  MOLSOFT 04262021142D

 54 58  0  0  1  0  0  0  0  0999 V2000
    0.0000    0.0000    0.0000 C   0  0  1
    2.1000    1.2124    0.0000 C   0  0  2
    0.7000    1.2124    0.0000 O   0  0  0
   -0.7000    1.2124    0.0000 O   0  0  0
   -9.1000    6.0622    0.0000 O   0  0  0
  -10.5000    6.0622    0.0000 C   0  0  1
   -4.2000    2.4249    0.0000 C   0  0  0
   -2.1000    1.2124    0.0000 C   0  0  2
   -8.4000    4.8497    0.0000 C   0  0  1
    1.5306    2.4914    0.0000 O   0  0  0
   -2.8000    2.4249    0.0000 C   0  0  1
  -11.2000    7.2746    0.0000 C   0  0  2
   -4.9000    3.6373    0.0000 C   0  0  2
   -7.0000    4.8497    0.0000 C   0  0  2
    2.5710    3.4282    0.0000 C   0  0  2
   -6.3000    3.6373    0.0000 C   0  0  2
    1.8216    5.7344    0.0000 O   0  0  0
    0.7000   -1.2124    0.0000 C   0  0  0
  -10.5000    8.4870    0.0000 C   0  0  0
    1.5306    4.3650    0.0000 C   0  0  2
  -11.2000    4.8497    0.0000 C   0  0  2
   -9.1000    3.6373    0.0000 C   0  0  2
   -2.8000    0.0000    0.0000 C   0  0  2
   -0.7000   -1.2124    0.0000 C   0  0  1
    2.1000   -1.2124    0.0000 C   0  0  0
   -0.5502    6.2385    0.0000 C   0  0  1
    0.7812    6.6712    0.0000 C   0  0  2
  -10.5000    3.6373    0.0000 C   0  0  0
    2.8000   -0.0000    0.0000 C   0  0  1
   -2.1000   -1.2124    0.0000 C   0  0  0
    3.4923    1.3588    0.0000 C   0  0  0
   -4.9000    1.2124    0.0000 O   0  0  0
    3.7834    2.7282    0.0000 C   0  0  0
   -9.1000    8.4870    0.0000 O   0  0  0
   -0.8413    4.8691    0.0000 C   0  0  0
    0.1991    3.9323    0.0000 C   0  0  0
   -7.0000    2.4249    0.0000 O   0  0  0
  -11.2000    9.6995    0.0000 O   0  0  0
   -0.7451    7.6249    0.0000 O   0  0  0
  -12.6000    7.2746    0.0000 C   0  0  0
    4.2000   -0.0000    0.0000 O   0  0  0
   -2.1000    3.6373    0.0000 C   0  0  0
   -4.2000    4.8497    0.0000 C   0  0  0
   -6.3000    6.0622    0.0000 C   0  0  0
    3.3939    4.5608    0.0000 C   0  0  0
   -1.9494    6.2874    0.0000 C   0  0  0
  -12.6000    4.8497    0.0000 C   0  0  0
   -4.2000    0.0000    0.0000 C   0  0  0
   -8.4000    2.4249    0.0000 C   0  0  0
    0.0000   -2.4249    0.0000 C   0  0  0
    1.0723    8.0406    0.0000 C   0  0  0
  -13.3000    8.4871    0.0000 C   0  0  0
   -2.8000    4.8497    0.0000 C   0  0  0
   -2.6066    7.5235    0.0000 C   0  0  0
  2  3  1
  1  3  1
  1  4  1
  9  5  1
  6  5  1
 11  7  1
  8  4  1
  9 14  1  1
  2 10  1
  8 11  1  1
  6 12  1  6
 13  7  1
 14 16  1
 15 10  1
 16 13  1
 20 17  1
  1 18  1  6
 12 19  1
 20 15  1  1
 21 28  1
 22  9  1
 23 30  1
 24  1  1
 25 18  2
 26 35  1
 27 17  1
 22 28  1
 29 25  1
 24 30  1
  2 31  1  1
 32  7  2
 33 31  1
 34 19  2
 35 36  1
 20 36  1
 16 37  1  1
 38 19  1
 26 39  1  1
 12 40  1  1
 29 41  1  6
 11 42  1  6
 13 43  1  6
 14 44  1  1
 15 45  1  1
 26 46  1
 21 47  1  6
 23 48  1  6
 22 49  1  1
 24 50  1  6
 27 51  1  6
 52 40  1
 53 42  1
 54 46  1
  8 23  1
  2 29  1
 15 33  1
 27 26  1
  6 21  1
M  END
> <molLogP>
6.733143

> <molLogS>
-4.545434

> <drugLikeness>
0.461793

$$$$
Chebulagic Acid - AVM Viral Entry Inhibitor
  MOLSOFT 04262021142D

 73 80  0  0  1  0  0  0  0  0999 V2000
    0.0000    0.0000    0.0000 C   0  0  2
   -1.3790    0.2418    0.0000 O   0  0  0
   -1.8591    1.5569    0.0000 C   0  0  1
   -0.8591    2.6747    0.0000 C   0  0  2
    0.4563    2.3703    0.0000 C   0  0  1
    0.7602    1.0470    0.0000 C   0  0  1
   -2.5956    0.3763    0.0000 C   0  0  0
   -2.4893   -1.0196    0.0000 O   0  0  0
   -0.8633    4.0299    0.0000 O   0  0  0
    1.8240    1.9290    0.0000 O   0  0  0
    2.1040    1.0329    0.0000 O   0  0  0
    0.7426   -1.1868    0.0000 O   0  0  0
    2.1418   -1.1370    0.0000 C   0  0  0
    2.8844   -2.3238    0.0000 C   0  0  0
    2.7982    0.0995    0.0000 O   0  0  0
    4.2709   -2.5178    0.0000 C   0  0  0
    4.7962   -3.8155    0.0000 C   0  0  0
    3.9350   -4.9193    0.0000 C   0  0  0
    2.5485   -4.7253    0.0000 C   0  0  0
    2.0232   -3.4276    0.0000 C   0  0  0
    1.6873   -5.8291    0.0000 O   0  0  0
    4.4603   -6.2170    0.0000 O   0  0  0
    6.1827   -4.0095    0.0000 O   0  0  0
    2.7205   -0.6227    0.0000 C   0  0  0
    4.9065   -1.6721    0.0000 C   0  0  0
    4.3007   -2.9342    0.0000 C   0  0  0
    2.9047   -3.0405    0.0000 C   0  0  0
    2.1146   -1.8848    0.0000 C   0  0  0
    4.1164   -0.5163    0.0000 C   0  0  0
    3.5106   -1.7784    0.0000 O   0  0  0
    5.0908   -4.0899    0.0000 O   0  0  0
    6.3025   -1.5657    0.0000 O   0  0  0
    0.9589   -2.6749    0.0000 C   0  0  0
    1.7490   -3.8306    0.0000 C   0  0  0
    1.1431   -5.0927    0.0000 C   0  0  0
   -0.2528   -5.1991    0.0000 C   0  0  0
   -1.0429   -4.0434    0.0000 C   0  0  0
   -0.4371   -2.7812    0.0000 C   0  0  0
    2.5391   -4.9864    0.0000 O   0  0  0
    0.5372   -6.3549    0.0000 O   0  0  0
   -0.8587   -6.4612    0.0000 O   0  0  0
   -1.6992   -2.1754    0.0000 C   0  0  0
   -2.6111   -3.2377    0.0000 O   0  0  0
    2.6141    0.7733    0.0000 C   0  0  0
    3.9350    1.2373    0.0000 O   0  0  0
    0.4461    4.3191    0.0000 C   0  0  0
    2.3304    2.3202    0.0000 C   0  0  0
    0.7582    5.6188    0.0000 C   0  0  2
    4.8543    4.0037    0.0000 C   0  0  0
    4.9680    5.3991    0.0000 C   0  0  0
    3.6758    3.3445    0.0000 C   0  0  0
    2.3508    4.2605    0.0000 C   0  0  0
    2.5511    5.5960    0.0000 C   0  0  0
    3.8164    6.1952    0.0000 C   0  0  0
    2.1150    5.6056    0.0000 C   0  0  1
    1.1627    6.8136    0.0000 C   0  0  1
    2.3902    7.4868    0.0000 C   0  0  0
    3.5870    6.7603    0.0000 O   0  0  0
   -0.5348    5.3180    0.0000 O   0  0  0
    3.5261    1.5920    0.0000 O   0  0  0
    3.9301    7.5906    0.0000 O   0  0  0
    6.2333    5.9983    0.0000 O   0  0  0
    0.7186    8.1413    0.0000 O   0  0  0
    2.4210    8.8865    0.0000 O   0  0  0
   -0.1032    6.7225    0.0000 C   0  0  0
   -1.4897    6.5284    0.0000 C   0  0  0
   -2.0148    5.2306    0.0000 O   0  0  0
   -2.3510    7.6320    0.0000 O   0  0  0
    2.0525    6.5368    0.0000 H   0  0  0
    1.1797    0.2132    0.0000 H   0  0  0
    1.0871    1.6825    0.0000 H   0  0  0
   -1.7315    3.0064    0.0000 H   0  0  0
   -2.6056    2.1171    0.0000 H   0  0  0
  1  2  1
  6  1  1
  3  2  1
  3  4  1
  4  5  1
  5  6  1
  3  7  1
  7  8  1
  4  9  1
  5 10  1
  6 11  1
  1 12  1  6
 12 13  1
 13 14  1
 13 15  2
 14 16  1
 14 20  2
 16 17  2
 17 18  1
 18 19  2
 19 20  1
 19 21  1
 18 22  1
 17 23  1
 28 24  2
 24 29  1
 25 26  1
 26 27  2
 27 28  1
 29 25  2
 27 30  1
 26 31  1
 25 32  1
 28 33  1
 33 34  2
 38 33  1
 34 35  1
 35 36  2
 36 37  1
 37 38  2
 34 39  1
 35 40  1
 36 41  1
 38 42  1
 42  8  1
 42 43  2
 44 10  1
 44 24  1
 44 45  2
 46  9  1
 47 11  1
 48 46  1
 50 49  1
 49 51  2
 51 52  1
 53 54  1
 54 50  2
 58 53  1
 53 52  2
 55 52  1
 55 56  1
 56 57  1
 57 58  1
 55 48  1
 46 59  2
 47 60  2
 51 47  1
 54 61  1
 50 62  1
 56 63  1  6
 57 64  2
 48 65  1  1
 65 66  1
 66 67  1
 66 68  2
 55 69  1  1
  6 70  1  6
  5 71  1  1
  4 72  1  6
  3 73  1  1
M  END
> <molLogP>
-3.992317

> <molLogS>
-3.555348

> <drugLikeness>
0.578804

$$$$
Punicalagin - AVM Viral Entry Inhibotor
  MOLSOFT 04262021142D

 82 92  0  0  1  0  0  0  0  0999 V2000
    0.0000    0.0000    0.0000 C   0  0  0
    0.7000   -1.2124    0.0000 C   0  0  0
   -0.0000   -2.4249    0.0000 C   0  0  0
   -1.4000   -2.4249    0.0000 C   0  0  0
   -2.1000   -1.2124    0.0000 C   0  0  0
   -1.4000   -0.0000    0.0000 C   0  0  0
    4.2000   -0.0000    0.0000 C   0  0  0
    4.9000   -1.2124    0.0000 C   0  0  0
    4.2000   -2.4249    0.0000 C   0  0  0
    2.8000   -0.0000    0.0000 C   0  0  0
    0.7000    1.2124    0.0000 C   0  0  0
    2.1000    1.2124    0.0000 O   0  0  0
    2.1000   -1.2124    0.0000 C   0  0  0
    2.8000   -2.4249    0.0000 C   0  0  0
    2.1000   -3.6373    0.0000 C   0  0  0
    0.7000   -3.6373    0.0000 O   0  0  0
   -2.3923   -4.2086    0.0000 C   0  0  0
   -2.4711   -5.6064    0.0000 C   0  0  0
   -3.7210   -6.2371    0.0000 C   0  0  0
   -4.8921   -5.4700    0.0000 C   0  0  0
   -4.8134   -4.0722    0.0000 C   0  0  0
   -3.5635   -3.4415    0.0000 C   0  0  0
    4.9311   -3.9439    0.0000 C   0  0  0
    6.0438   -3.0943    0.0000 C   0  0  0
    7.3360   -3.6331    0.0000 C   0  0  0
    7.5154   -5.0215    0.0000 C   0  0  0
    6.4027   -5.8712    0.0000 C   0  0  0
    5.1105   -5.3324    0.0000 C   0  0  0
   -0.0000    2.4249    0.0000 O   0  0  0
   -3.4847   -2.0437    0.0000 O   0  0  0
   -5.9845   -3.3051    0.0000 O   0  0  0
   -6.1420   -6.1007    0.0000 O   0  0  0
   -2.0396   -6.9382    0.0000 C   0  0  0
   -3.2694   -7.6071    0.0000 O   0  0  0
   -1.1561   -8.0242    0.0000 O   0  0  0
   -3.5000   -1.2124    0.0000 O   0  0  0
   -2.1000   -3.6373    0.0000 O   0  0  0
    2.8000   -4.8497    0.0000 O   0  0  0
    8.8076   -5.5604    0.0000 O   0  0  0
    8.4487   -2.7835    0.0000 O   0  0  0
    5.8644   -1.7058    0.0000 O   0  0  0
    6.3000   -1.2124    0.0000 O   0  0  0
    4.9000    1.2124    0.0000 O   0  0  0
    0.0601   -8.7178    0.0000 C   0  0  0
    1.4446   -8.9251    0.0000 C   0  0  2
    2.8106   -8.6184    0.0000 C   0  0  2
    3.7593   -9.6479    0.0000 C   0  0  1
    3.3420  -10.9843    0.0000 C   0  0  2
    1.9760  -11.2911    0.0000 C   0  0  1
    1.0273  -10.2615    0.0000 O   0  0  0
    3.9735   -7.8388    0.0000 O   0  0  0
    4.7763   -6.6919    0.0000 C   0  0  0
    6.0513   -7.2702    0.0000 O   0  0  0
    4.8824   -8.8121    0.0000 O   0  0  0
    3.7899  -12.3107    0.0000 O   0  0  0
    1.5587  -12.6274    0.0000 O   0  0  0
    6.2823   -8.7960    0.0000 C   0  0  0
    7.4243   -9.6058    0.0000 C   0  0  0
    6.6996   -7.4596    0.0000 O   0  0  0
    8.3491   -8.5547    0.0000 C   0  0  0
    9.7217   -8.8301    0.0000 C   0  0  0
   10.1696  -10.1565    0.0000 C   0  0  0
    9.2448  -11.2076    0.0000 C   0  0  0
    7.8722  -10.9322    0.0000 C   0  0  0
    4.9319  -13.1205    0.0000 C   0  0  0
    6.3318  -13.1045    0.0000 C   0  0  0
    4.5146  -14.4569    0.0000 O   0  0  0
    7.4549  -12.2686    0.0000 C   0  0  0
    8.7403  -12.8233    0.0000 C   0  0  0
    8.9026  -14.2139    0.0000 C   0  0  0
    7.7795  -15.0497    0.0000 C   0  0  0
    6.4941  -14.4950    0.0000 C   0  0  0
   10.6465   -7.7790    0.0000 O   0  0  0
   11.5423  -10.4318    0.0000 O   0  0  0
    9.6927  -12.5340    0.0000 O   0  0  0
    7.9418  -16.4403    0.0000 O   0  0  0
   10.1880  -14.7686    0.0000 O   0  0  0
    9.8634  -11.9875    0.0000 O   0  0  0
    2.8846  -11.7979    0.0000 H   0  0  0
    3.8462   -8.7186    0.0000 H   0  0  0
    3.7375   -8.7281    0.0000 H   0  0  0
    0.6537   -9.4207    0.0000 H   0  0  0
  4 37  1
  8  9  1
 15 38  2
 17 18  2
 26 39  1
  9 14  2
 25 40  1
 18 19  1
 24 41  1
 10  7  1
  8 42  1
 19 20  2
  7 43  1
 10 13  2
 35 44  1
 20 21  1
 45 44  1
 45 46  1
  4  5  1
 21 22  2
 22 17  1
  6 17  1
  2  3  1
 45 50  1
 46 47  1
 47 48  1
 48 49  1
 49 50  1
  5  6  2
 46 51  1
 23 24  2
 28 52  1
 10 12  1
 52 53  2
 52 51  1
 24 25  1
 47 54  1
  1 11  1
 48 55  1
 25 26  2
 49 56  1  6
 11 12  1
 54 57  1
 26 27  1
 57 58  1
  2 13  1
 57 59  2
 27 28  2
 58 60  2
 28 23  1
 60 61  1
  9 23  1
 61 62  2
  6  1  1
 62 63  1
 11 29  2
 63 64  2
 64 58  1
  1  2  2
 55 65  1
 22 30  1
 65 66  1
  3  4  2
 65 67  2
 21 31  1
 66 68  2
  7  8  2
 68 69  1
 20 32  1
 69 70  2
 13 14  1
 70 71  1
 18 33  1
 71 72  2
 72 66  1
 64 68  1
 14 15  1
 61 73  1
 33 34  2
 62 74  1
 15 16  1
 63 75  1
 33 35  1
 71 76  1
 16  3  1
 70 77  1
  5 36  1
 69 78  1
 48 79  1  6
 47 80  1  1
 46 81  1  6
 45 82  1  1
M  END
> <molLogP>
-2.664925

> <molLogS>
-5.273977

> <drugLikeness>
-0.287758

$$$$
Saikosaponin C - AVM Viral replication Inhibitor
  MOLSOFT 04262021142D

 65 73  0  0  1  0  0  0  0  0999 V2000
    0.0000    0.0000    0.0000 C   0  0  3
    0.7000   -1.2124    0.0000 C   0  0  2
    2.1000   -1.2124    0.0000 C   0  0  0
    2.8000   -0.0000    0.0000 C   0  0  0
    2.1000    1.2124    0.0000 C   0  0  1
    0.7000    1.2124    0.0000 C   0  0  0
   -0.0000   -2.4249    0.0000 C   0  0  3
   -1.4000   -2.4249    0.0000 C   0  0  1
   -2.1000   -1.2124    0.0000 C   0  0  0
   -1.4000   -0.0000    0.0000 C   0  0  0
    0.7000   -3.6373    0.0000 C   0  0  0
   -0.0000   -4.8497    0.0000 C   0  0  0
   -1.4000   -4.8497    0.0000 C   0  0  1
   -2.1000   -3.6373    0.0000 C   0  0  1
   -2.1000   -6.0622    0.0000 C   0  0  3
   -3.5000   -6.0622    0.0000 C   0  0  1
   -4.2000   -4.8497    0.0000 C   0  0  2
   -3.5000   -3.6373    0.0000 C   0  0  0
   -0.9333   -4.3831    0.0000 C   0  0  0
   -1.6333   -3.1706    0.0000 C   0  0  0
   -3.0333   -3.1706    0.0000 C   0  0  0
   -3.7333   -4.3831    0.0000 C   0  0  0
   -0.3178   -2.6918    0.0000 C   0  0  0
   -1.8764   -1.7919    0.0000 C   0  0  0
   -5.6000   -4.8497    0.0000 O   0  0  0
   -2.8000   -4.8497    0.0000 C   0  0  0
   -2.8000   -2.4249    0.0000 C   0  0  0
    1.4000   -2.4249    0.0000 C   0  0  0
    0.9431    2.5912    0.0000 C   0  0  0
    2.8000    2.4249    0.0000 O   0  0  0
    2.1000    3.6373    0.0000 C   0  0  2
    2.8000    4.8497    0.0000 O   0  0  0
    2.1000    6.0622    0.0000 C   0  0  1
    0.7000    6.0622    0.0000 C   0  0  1
   -0.0000    4.8497    0.0000 C   0  0  1
    0.7000    3.6373    0.0000 C   0  0  1
   -1.4000    4.8497    0.0000 O   0  0  0
    2.8000    7.2746    0.0000 C   0  0  0
   -0.0000    7.2746    0.0000 O   0  0  0
   -0.6156    1.6913    0.0000 C   0  0  0
   -0.0000    2.4249    0.0000 O   0  0  0
   -1.4000    7.2746    0.0000 C   0  0  2
   -2.1000    6.0622    0.0000 O   0  0  0
   -3.5000    6.0622    0.0000 C   0  0  2
   -4.2000    7.2746    0.0000 C   0  0  1
   -3.5000    8.4870    0.0000 C   0  0  2
   -2.1000    8.4870    0.0000 C   0  0  1
   -4.2000    4.8497    0.0000 C   0  0  0
   -5.6000    7.2746    0.0000 O   0  0  0
   -4.2000    9.6995    0.0000 O   0  0  0
   -1.4000    9.6995    0.0000 O   0  0  0
   -2.1367   -7.3987    0.0000 C   0  0  0
   -0.9242   -6.6987    0.0000 O   0  0  0
    2.1000    8.4870    0.0000 O   0  0  0
    2.8000    9.6995    0.0000 C   0  0  2
    4.2000    9.6995    0.0000 O   0  0  0
    4.9000   10.9119    0.0000 C   0  0  1
    4.2000   12.1244    0.0000 C   0  0  2
    2.8000   12.1244    0.0000 C   0  0  1
    2.1000   10.9119    0.0000 C   0  0  1
    6.3000   10.9119    0.0000 C   0  0  0
    7.0000   12.1244    0.0000 O   0  0  0
    4.9000   13.3368    0.0000 O   0  0  0
    2.1000   13.3368    0.0000 O   0  0  0
    0.7000   10.9119    0.0000 O   0  0  0
  2  3  1
  3  4  1
  5  4  1
  5  6  1
  1  6  1
  1 10  1
  1  2  1
  2  7  1
  8  9  1
  9 10  1
 14  8  1
  8  7  1
  7 11  1
 11 12  2
 13 12  1  6
 13 15  1
 14 13  1
 14 18  1
 16 17  1
 17 18  1
 15 19  1
 16 15  1
 16 22  1  6
 19 20  1
 20 21  1
 21 22  1
 20 23  1
 20 24  1
 17 25  1  1
 14 26  1  6
  8 27  1  1
  2 28  1  1
  6 29  1
  5 30  1  1
 31 30  1  1
 31 32  1
 36 31  1
 33 32  1
 33 34  1
 34 35  1
 35 36  1
 35 37  1  1
 33 38  1  1
 34 39  1  1
  6 40  1
 36 41  1  6
 42 43  1
 47 42  1
 44 43  1
 44 45  1
 45 46  1
 46 47  1
 44 48  1  1
 45 49  1  6
 46 50  1  1
 47 51  1  1
 16 52  1
 13 53  1
 52 53  1
 42 39  1  6
 54 38  1
 55 54  1  1
 55 56  1
 60 55  1
 57 56  1
 57 58  1
 58 59  1
 59 60  1
 57 61  1  1
 61 62  1
 58 63  1  6
 59 64  1  1
 60 65  1  6
M  END
> <molLogP>
0.522926

> <molLogS>
-7.986057

> <drugLikeness>
-0.4317

$$$$
Silymarin - AVM Antioxidant 
  MOLSOFT 04262021142D

 35 39  0  0  1  0  0  0  0  0999 V2000
    0.0000    0.0000    0.0000 C   0  0  0
    0.7000    1.2124    0.0000 C   0  0  0
    2.1000    1.2124    0.0000 C   0  0  0
    0.7000   -1.2124    0.0000 C   0  0  0
    2.1000   -1.2124    0.0000 C   0  0  0
    2.8000   -0.0000    0.0000 C   0  0  0
    4.2000   -0.0000    0.0000 C   0  0  0
    4.9000   -1.2124    0.0000 C   0  0  1
    4.2000   -2.4249    0.0000 C   0  0  2
    2.8000   -2.4249    0.0000 O   0  0  0
    2.8000    2.4249    0.0000 O   0  0  0
   -1.4000    0.0000    0.0000 O   0  0  0
    4.9000    1.2124    0.0000 O   0  0  0
    6.3000   -1.2124    0.0000 O   0  0  0
    4.9000   -3.6373    0.0000 C   0  0  0
    6.3000   -3.6373    0.0000 C   0  0  0
    4.9000   -6.0622    0.0000 C   0  0  0
    4.2000   -4.8497    0.0000 C   0  0  0
    6.3000   -6.0622    0.0000 C   0  0  0
    7.0000   -4.8497    0.0000 C   0  0  0
    8.4000   -4.8497    0.0000 O   0  0  0
    9.1000   -6.0622    0.0000 C   0  0  3
    8.4000   -7.2746    0.0000 C   0  0  3
    7.0000   -7.2746    0.0000 O   0  0  0
    9.1000   -8.4871    0.0000 C   0  0  0
   10.5000   -8.4871    0.0000 O   0  0  0
   10.5000   -6.0622    0.0000 C   0  0  0
   11.2000   -4.8497    0.0000 C   0  0  0
   12.6000   -4.8497    0.0000 C   0  0  0
   13.3000   -6.0622    0.0000 C   0  0  0
   12.6000   -7.2746    0.0000 C   0  0  0
   11.2000   -7.2746    0.0000 C   0  0  0
   13.3000   -8.4871    0.0000 O   0  0  0
   14.7000   -8.4871    0.0000 C   0  0  0
   14.7000   -6.0622    0.0000 O   0  0  0
  4  1  1
 19 17  1
  5 10  1
 17 18  2
 18 15  1
 19 20  2
  6  7  1
  8  7  1
  8  9  1
  9 10  1
  5  6  1
  3 11  1
 19 24  1
 20 21  1
 22 21  1
 22 23  1
 23 24  1
 23 25  1
  1 12  1
 25 26  1
  2  3  1
 22 27  1
  7 13  2
 27 28  2
  3  6  2
 28 29  1
  8 14  1  6
 29 30  2
  1  2  2
 30 31  1
  9 15  1  1
 31 32  2
 32 27  1
  5  4  2
 15 16  2
 33 34  1
 31 33  1
 16 20  1
 30 35  1
M  END
> <molLogP>
2.588358

> <molLogS>
-6.19405

> <drugLikeness>
0.841271

$$$$
Epigallocatechin - AVM Viral Entry
  MOLSOFT 04262021142D

 22 24  0  0  1  0  0  0  0  0999 V2000
    0.0000    0.0000    0.0000 O   0  0  0
    0.7000    1.2124    0.0000 C   0  0  1
    2.1000    1.2124    0.0000 C   0  0  1
    2.8000   -0.0000    0.0000 C   0  0  0
    2.1000   -1.2124    0.0000 C   0  0  0
    2.8000   -2.4249    0.0000 C   0  0  0
    2.1000   -3.6373    0.0000 C   0  0  0
    0.7000   -3.6373    0.0000 C   0  0  0
    0.0000   -2.4249    0.0000 C   0  0  0
    0.7000   -1.2124    0.0000 C   0  0  0
   -0.0000    2.4249    0.0000 C   0  0  0
   -1.4000    2.4249    0.0000 C   0  0  0
   -2.1000    3.6373    0.0000 C   0  0  0
   -1.4000    4.8497    0.0000 C   0  0  0
    0.0000    4.8497    0.0000 C   0  0  0
    0.7000    3.6373    0.0000 C   0  0  0
    2.8000    2.4249    0.0000 O   0  0  0
    4.2000   -2.4249    0.0000 O   0  0  0
    0.0000   -4.8497    0.0000 O   0  0  0
   -3.5000    3.6373    0.0000 O   0  0  0
   -2.1000    6.0622    0.0000 O   0  0  0
    0.7000    6.0622    0.0000 O   0  0  0
  2  1  1
 10  1  1
  2  3  1
  2 11  1  6
  3  4  1
  3 17  1  6
  4  5  1
  5  6  2
 10  5  1
  6  7  1
  6 18  1
  7  8  2
  8  9  1
  8 19  1
 10  9  2
 11 12  2
 11 16  1
 12 13  1
 13 14  2
 13 20  1
 14 15  1
 14 21  1
 15 16  2
 15 22  1
M  END
> <molLogP>
1.498884

> <molLogS>
-2.65955

> <drugLikeness>
-0.04403

$$$$
Ladanein - AVM Viral Entry
  MOLSOFT 04262021142D

 23 25  0  0  0  0  0  0  0  0999 V2000
    0.0000    0.0000    0.0000 C   0  0  0
    0.7000    1.2124    0.0000 C   0  0  0
    2.1000    1.2124    0.0000 C   0  0  0
    2.8000   -0.0000    0.0000 O   0  0  0
    0.7000   -1.2124    0.0000 C   0  0  0
    2.1000   -1.2124    0.0000 C   0  0  0
    2.8000   -2.4249    0.0000 C   0  0  0
    2.1000   -3.6373    0.0000 C   0  0  0
    0.7000   -3.6373    0.0000 C   0  0  0
    0.0000   -2.4249    0.0000 C   0  0  0
    2.8000    2.4249    0.0000 C   0  0  0
    2.1000    3.6373    0.0000 C   0  0  0
    2.8000    4.8497    0.0000 C   0  0  0
    4.2000    4.8497    0.0000 C   0  0  0
    4.9000    3.6373    0.0000 C   0  0  0
    4.2000    2.4249    0.0000 C   0  0  0
   -1.4000    0.0000    0.0000 O   0  0  0
    4.9000    6.0622    0.0000 O   0  0  0
    4.2000    7.2746    0.0000 C   0  0  0
   -1.4000   -2.4249    0.0000 O   0  0  0
    0.0000   -4.8497    0.0000 O   0  0  0
    2.8000   -4.8497    0.0000 O   0  0  0
    4.2000   -4.8497    0.0000 C   0  0  0
  6  4  1
 11 12  2
  5  6  2
 12 13  1
  5  1  1
 13 14  2
  6  7  1
 14 15  1
  1  2  1
 15 16  2
 16 11  1
  3 11  1
  7  8  2
  1 17  2
  2  3  2
 14 18  1
  8  9  1
 18 19  1
  3  4  1
 10 20  1
  9 10  2
  9 21  1
 10  5  1
  8 22  1
 22 23  1
M  END
> <molLogP>
3.258225

> <molLogS>
-3.865366

> <drugLikeness>
0.410779

$$$$
Tellimagrandin I - AVM Viral Invasion Inhibitor
  MOLSOFT 04262021142D

 58 63  0  0  1  0  0  0  0  0999 V2000
    0.0000    0.0000    0.0000 C   0  0  0
    0.7000    1.2124    0.0000 C   0  0  0
    2.1000    1.2124    0.0000 C   0  0  0
    2.8000   -0.0000    0.0000 C   0  0  0
    2.1000   -1.2124    0.0000 C   0  0  0
    0.7000   -1.2124    0.0000 C   0  0  0
   -0.0000   -2.4249    0.0000 O   0  0  0
   -1.4000    0.0000    0.0000 O   0  0  0
   -0.0000    2.4249    0.0000 O   0  0  0
    3.3124   -0.7000    0.0000 C   0  0  0
    3.6501   -2.0523    0.0000 O   0  0  0
    1.9124   -0.7000    0.0000 O   0  0  0
    2.1000    2.6124    0.0000 C   0  0  0
    0.9585    3.9517    0.0000 C   0  0  0
    1.3209    5.3040    0.0000 C   0  0  0
    2.6732    5.6663    0.0000 C   0  0  0
    4.0124    4.5249    0.0000 C   0  0  0
    2.8000    3.8249    0.0000 C   0  0  0
   -0.4071    3.6434    0.0000 O   0  0  0
    0.3309    6.2939    0.0000 O   0  0  0
    2.9815    7.0320    0.0000 O   0  0  0
    4.8062    4.8749    0.0000 C   0  0  0
    5.7748    5.8772    0.0000 O   0  0  0
    3.5938    5.5749    0.0000 O   0  0  0
    7.3249    2.6124    0.0000 C   0  0  1
    8.5373    3.3124    0.0000 C   0  0  1
    9.7497    2.6124    0.0000 C   0  0  2
    9.7497    1.2124    0.0000 C   0  0  3
    8.5373    0.5124    0.0000 O   0  0  0
    7.3249    1.2124    0.0000 C   0  0  2
    6.6249    0.0000    0.0000 C   0  0  0
   10.9622    0.5124    0.0000 O   0  0  0
   10.9622    3.3124    0.0000 O   0  0  0
    8.5373    4.7124    0.0000 O   0  0  0
    7.3249    5.4124    0.0000 C   0  0  0
    6.1124    4.7124    0.0000 O   0  0  0
    7.3249    6.8124    0.0000 C   0  0  0
   10.9622    4.7124    0.0000 C   0  0  0
   12.1746    5.4124    0.0000 C   0  0  0
    9.7497    5.4124    0.0000 O   0  0  0
   12.1746    6.8124    0.0000 C   0  0  0
   13.3870    7.5124    0.0000 C   0  0  0
   14.5995    6.8124    0.0000 C   0  0  0
   14.5995    5.4124    0.0000 C   0  0  0
   13.3870    4.7124    0.0000 C   0  0  0
   15.8119    4.7124    0.0000 O   0  0  0
   15.8119    7.5124    0.0000 O   0  0  0
    6.1124    7.5124    0.0000 C   0  0  0
    6.1124    8.9124    0.0000 C   0  0  0
    7.3249    9.6124    0.0000 C   0  0  0
    8.5373    8.9124    0.0000 C   0  0  0
    8.5373    7.5124    0.0000 C   0  0  0
    4.9000    9.6124    0.0000 O   0  0  0
    7.3249   11.0124    0.0000 O   0  0  0
    9.7497    9.6124    0.0000 O   0  0  0
   13.3870    8.9124    0.0000 O   0  0  0
    7.5664    0.3109    0.0000 H   0  0  0
    7.5664    3.5140    0.0000 H   0  0  0
 13 14  2
  6  7  1
 25 30  1
 26 27  1
 27 28  1
 28 29  1
 30 29  1
 14 15  1
 30 31  1
 12 31  1
  3  4  2
 28 32  1
 15 16  2
 27 33  1  1
  1  8  1
 26 34  1  6
 16 17  1
 34 35  1
 35 36  2
 17 18  2
 35 37  1
 18 13  1
 33 38  1
  2  9  1
 38 39  1
 14 19  1
 38 40  2
  4  5  1
 39 41  2
 15 20  1
 41 42  1
  4 10  1
 42 43  2
 16 21  1
 43 44  1
  2  3  1
 44 45  2
 45 39  1
 17 22  1
 44 46  1
 10 11  2
 43 47  1
 22 23  2
 37 48  2
  5  6  2
 48 49  1
 22 24  1
 49 50  2
 10 12  1
 50 51  1
 25 24  1
 51 52  2
 52 37  1
 25 26  1
 49 53  1
  6  1  1
 50 54  1
  3 13  1
 51 55  1
  1  2  2
 42 56  1
 30 57  1  1
 25 58  1  6
M  END
> <molLogP>
-0.909788

> <molLogS>
-3.282571

> <drugLikeness>
0.101281

$$$$
Chebulagic Acid - AVM Fusion and Transmission Inhibitor
  MOLSOFT 04262021142D

 73 80  0  0  1  0  0  0  0  0999 V2000
    0.0000    0.0000    0.0000 C   0  0  2
   -1.3790    0.2418    0.0000 O   0  0  0
   -1.8591    1.5569    0.0000 C   0  0  1
   -0.8591    2.6747    0.0000 C   0  0  2
    0.4563    2.3703    0.0000 C   0  0  1
    0.7602    1.0470    0.0000 C   0  0  1
   -2.5956    0.3763    0.0000 C   0  0  0
   -2.4893   -1.0196    0.0000 O   0  0  0
   -0.8633    4.0299    0.0000 O   0  0  0
    1.8240    1.9290    0.0000 O   0  0  0
    2.1040    1.0329    0.0000 O   0  0  0
    0.7426   -1.1868    0.0000 O   0  0  0
    2.1418   -1.1370    0.0000 C   0  0  0
    2.8844   -2.3238    0.0000 C   0  0  0
    2.7982    0.0995    0.0000 O   0  0  0
    4.2709   -2.5178    0.0000 C   0  0  0
    4.7962   -3.8155    0.0000 C   0  0  0
    3.9350   -4.9193    0.0000 C   0  0  0
    2.5485   -4.7253    0.0000 C   0  0  0
    2.0232   -3.4276    0.0000 C   0  0  0
    1.6873   -5.8291    0.0000 O   0  0  0
    4.4603   -6.2170    0.0000 O   0  0  0
    6.1827   -4.0095    0.0000 O   0  0  0
    2.7205   -0.6227    0.0000 C   0  0  0
    4.9065   -1.6721    0.0000 C   0  0  0
    4.3007   -2.9342    0.0000 C   0  0  0
    2.9047   -3.0405    0.0000 C   0  0  0
    2.1146   -1.8848    0.0000 C   0  0  0
    4.1164   -0.5163    0.0000 C   0  0  0
    3.5106   -1.7784    0.0000 O   0  0  0
    5.0908   -4.0899    0.0000 O   0  0  0
    6.3025   -1.5657    0.0000 O   0  0  0
    0.9589   -2.6749    0.0000 C   0  0  0
    1.7490   -3.8306    0.0000 C   0  0  0
    1.1431   -5.0927    0.0000 C   0  0  0
   -0.2528   -5.1991    0.0000 C   0  0  0
   -1.0429   -4.0434    0.0000 C   0  0  0
   -0.4371   -2.7812    0.0000 C   0  0  0
    2.5391   -4.9864    0.0000 O   0  0  0
    0.5372   -6.3549    0.0000 O   0  0  0
   -0.8587   -6.4612    0.0000 O   0  0  0
   -1.6992   -2.1754    0.0000 C   0  0  0
   -2.6111   -3.2377    0.0000 O   0  0  0
    2.6141    0.7733    0.0000 C   0  0  0
    3.9350    1.2373    0.0000 O   0  0  0
    0.4461    4.3191    0.0000 C   0  0  0
    2.3304    2.3202    0.0000 C   0  0  0
    0.7582    5.6188    0.0000 C   0  0  2
    4.8543    4.0037    0.0000 C   0  0  0
    4.9680    5.3991    0.0000 C   0  0  0
    3.6758    3.3445    0.0000 C   0  0  0
    2.3508    4.2605    0.0000 C   0  0  0
    2.5511    5.5960    0.0000 C   0  0  0
    3.8164    6.1952    0.0000 C   0  0  0
    2.1150    5.6056    0.0000 C   0  0  1
    1.1627    6.8136    0.0000 C   0  0  1
    2.3902    7.4868    0.0000 C   0  0  0
    3.5870    6.7603    0.0000 O   0  0  0
   -0.5348    5.3180    0.0000 O   0  0  0
    3.5261    1.5920    0.0000 O   0  0  0
    3.9301    7.5906    0.0000 O   0  0  0
    6.2333    5.9983    0.0000 O   0  0  0
    0.7186    8.1413    0.0000 O   0  0  0
    2.4210    8.8865    0.0000 O   0  0  0
   -0.1032    6.7225    0.0000 C   0  0  0
   -1.4897    6.5284    0.0000 C   0  0  0
   -2.0148    5.2306    0.0000 O   0  0  0
   -2.3510    7.6320    0.0000 O   0  0  0
    2.0525    6.5368    0.0000 H   0  0  0
    1.1797    0.2132    0.0000 H   0  0  0
    1.0871    1.6825    0.0000 H   0  0  0
   -1.7315    3.0064    0.0000 H   0  0  0
   -2.6056    2.1171    0.0000 H   0  0  0
  1  2  1
  6  1  1
  3  2  1
  3  4  1
  4  5  1
  5  6  1
  3  7  1
  7  8  1
  4  9  1
  5 10  1
  6 11  1
  1 12  1  6
 12 13  1
 13 14  1
 13 15  2
 14 16  1
 14 20  2
 16 17  2
 17 18  1
 18 19  2
 19 20  1
 19 21  1
 18 22  1
 17 23  1
 28 24  2
 24 29  1
 25 26  1
 26 27  2
 27 28  1
 29 25  2
 27 30  1
 26 31  1
 25 32  1
 28 33  1
 33 34  2
 38 33  1
 34 35  1
 35 36  2
 36 37  1
 37 38  2
 34 39  1
 35 40  1
 36 41  1
 38 42  1
 42  8  1
 42 43  2
 44 10  1
 44 24  1
 44 45  2
 46  9  1
 47 11  1
 48 46  1
 50 49  1
 49 51  2
 51 52  1
 53 54  1
 54 50  2
 58 53  1
 53 52  2
 55 52  1
 55 56  1
 56 57  1
 57 58  1
 55 48  1
 46 59  2
 47 60  2
 51 47  1
 54 61  1
 50 62  1
 56 63  1  6
 57 64  2
 48 65  1  1
 65 66  1
 66 67  1
 66 68  2
 55 69  1  1
  6 70  1  6
  5 71  1  1
  4 72  1  6
  3 73  1  1
M  END
> <molLogP>
-3.992317

> <molLogS>
-3.555348

> <drugLikeness>
0.578804

$$$$
Epiafzelechin - AVM HSV
  MOLSOFT 04262021142D

 20 22  0  0  1  0  0  0  0  0999 V2000
    0.0000    0.0000    0.0000 O   0  0  0
    0.7000    1.2124    0.0000 C   0  0  0
    2.1000    1.2124    0.0000 C   0  0  0
    0.7000   -1.2124    0.0000 C   0  0  1
    2.8000   -0.0000    0.0000 C   0  0  0
    2.8000    2.4249    0.0000 C   0  0  0
    2.1000   -1.2124    0.0000 C   0  0  1
    0.0000    2.4249    0.0000 C   0  0  0
    2.1000    3.6373    0.0000 C   0  0  0
   -0.0000   -2.4249    0.0000 C   0  0  0
    0.7000    3.6373    0.0000 C   0  0  0
    0.7000   -3.6373    0.0000 C   0  0  0
   -1.4000   -2.4249    0.0000 C   0  0  0
    4.2000    2.4249    0.0000 O   0  0  0
    2.8000   -2.4249    0.0000 O   0  0  0
   -1.4000   -4.8497    0.0000 C   0  0  0
   -2.1000   -3.6373    0.0000 C   0  0  0
    0.0000   -4.8497    0.0000 C   0  0  0
    0.0000    4.8497    0.0000 O   0  0  0
   -2.1000   -6.0622    0.0000 O   0  0  0
  2  1  1
  3  2  1
  4  1  1
  7  5  1
  6  3  2
  7  4  1
  8  2  2
  9 11  2
  4 10  1  1
 11  8  1
 12 10  2
 13 10  1
 14  6  1
  7 15  1  1
 16 17  1
 17 13  2
 18 12  1
 19 11  1
 20 16  1
  3  5  1
 18 16  2
  6  9  1
M  END
> <molLogP>
2.257767

> <molLogS>
-3.329609

> <drugLikeness>
0.435881

$$$$
Excoecaria Toxin - AVM HSV
  MOLSOFT 04262021142D

 42 47  0  0  1  0  0  0  0  0999 V2000
  -10.9285    0.3565    0.0000 C   0  0  0
   -9.6947   -0.3050    0.0000 C   0  0  0
   -8.5049    0.4328    0.0000 C   0  0  0
   -7.2710   -0.2288    0.0000 C   0  0  0
   -6.0812    0.5090    0.0000 C   0  0  0
   -4.8473   -0.1525    0.0000 C   0  0  0
   -3.6575    0.5853    0.0000 C   0  0  0
   -2.4237   -0.0763    0.0000 C   0  0  0
   -1.2338    0.6615    0.0000 C   0  0  0
   -0.0000   -0.0000    0.0000 C   0  0  2
    0.8229   -1.1326    0.0000 O   0  0  0
    2.1544   -0.7000    0.0000 C   0  0  2
    1.6408   -2.5389    0.0000 C   0  0  2
    2.7222   -3.4281    0.0000 C   0  0  1
    2.7012   -4.8279    0.0000 C   0  0  2
    1.4994   -4.1099    0.0000 O   0  0  0
    1.5937   -5.6843    0.0000 C   0  0  2
    0.2336   -5.3524    0.0000 C   0  0  1
   -0.3549   -4.0821    0.0000 C   0  0  2
    0.2714   -2.8300    0.0000 C   0  0  2
   -0.6654   -1.7896    0.0000 O   0  0  0
    1.7762   -4.0132    0.0000 C   0  0  1
    3.1037   -3.5684    0.0000 C   0  0  0
    2.1544    0.7000    0.0000 C   0  0  2
    0.8229    1.1326    0.0000 O   0  0  0
    3.1904    1.6417    0.0000 C   0  0  0
    4.5239    1.2153    0.0000 C   0  0  0
    2.8929    3.0097    0.0000 C   0  0  0
    2.0151   -2.6337    0.0000 C   0  0  0
   -1.7448   -4.2493    0.0000 C   0  0  0
   -2.0154   -5.6229    0.0000 C   0  0  0
   -0.7926   -6.3047    0.0000 C   0  0  0
   -0.6255   -7.6947    0.0000 O   0  0  0
   -3.2857   -6.2114    0.0000 C   0  0  0
    0.5859   -6.7074    0.0000 O   0  0  0
    1.8848   -7.0538    0.0000 O   0  0  0
    3.9534   -5.4542    0.0000 C   0  0  0
    5.1218   -4.6829    0.0000 O   0  0  0
    1.4195   -3.4457    0.0000 H   0  0  0
   -0.8921   -3.3189    0.0000 H   0  0  0
    3.5690   -3.0358    0.0000 H   0  0  0
    1.5084   -1.3736    0.0000 H   0  0  0
  1  2  1
  2  3  1
  3  4  1
  4  5  1
  5  6  1
  6  7  2
  7  8  1
  8  9  2
 10  9  1  6
 10 11  1
 12 11  1
 12 13  1
 13 14  1
 14 15  1
 15 16  1
 14 16  1
 15 17  1
 17 18  1
 18 19  1
 19 20  1
 13 20  1
 20 21  1  1
 10 21  1
 20 22  1
 22 23  1
 24 23  1
 12 24  1
 24 25  1
 10 25  1
 24 26  1  1
 26 27  2
 26 28  1
 22 29  1  1
 19 30  1
 30 31  2
 31 32  1
 18 32  1
 32 33  2
 31 34  1
 18 35  1  1
 17 36  1  1
 15 37  1  6
 37 38  1
 13 39  1  1
 19 40  1  6
 14 41  1  6
 12 42  1  6
M  END
> <molLogP>
5.668232

> <molLogS>
-6.424594

> <drugLikeness>
-0.765494

$$$$
Meliacinolin - AVM TNF and IFN Production
  MOLSOFT 04262021142D

 40 45  0  0  1  0  0  0  0  0999 V2000
    0.0000    0.0000    0.0000 C   0  0  0
    0.7000    1.2124    0.0000 C   0  0  2
    0.7000   -1.2124    0.0000 C   0  0  1
    2.1000    1.2124    0.0000 C   0  0  1
    3.0368    2.2528    0.0000 C   0  0  0
    4.3157    1.6834    0.0000 O   0  0  0
    2.1000   -1.2124    0.0000 C   0  0  1
    2.8000   -0.0000    0.0000 C   0  0  1
    4.1694    0.2911    0.0000 C   0  0  2
    4.9641   -0.9159    0.0000 C   0  0  2
    3.0023   -2.3412    0.0000 C   0  0  2
    4.3946   -2.1948    0.0000 C   0  0  2
    3.2558   -4.7528    0.0000 C   0  0  0
    2.4329   -3.6201    0.0000 C   0  0  0
    4.6481   -4.6064    0.0000 C   0  0  2
    5.2175   -3.3274    0.0000 C   0  0  0
    6.6099   -3.4738    0.0000 C   0  0  0
    6.9009   -4.8432    0.0000 C   0  0  0
    5.6885   -5.5432    0.0000 C   0  0  1
    4.2155   -5.9379    0.0000 C   0  0  0
    5.5422   -6.9355    0.0000 C   0  0  0
    6.5826   -7.8723    0.0000 C   0  0  0
    6.0131   -9.1513    0.0000 O   0  0  0
    4.6208   -9.0049    0.0000 C   0  0  0
    4.3297   -7.6355    0.0000 C   0  0  0
    5.7870   -2.0485    0.0000 C   0  0  0
    1.4933   -2.4741    0.0000 C   0  0  0
    6.3594   -0.8016    0.0000 O   0  0  0
   -0.0000    2.4249    0.0000 O   0  0  0
    1.5306    2.4914    0.0000 C   0  0  0
   -0.0000   -2.4249    0.0000 O   0  0  0
   -1.4000   -2.4249    0.0000 C   0  0  0
   -2.1000   -1.2124    0.0000 O   0  0  0
   -2.1000   -3.6373    0.0000 C   0  0  0
   -3.5000   -3.6373    0.0000 C   0  0  0
   -4.2000   -2.4249    0.0000 C   0  0  0
   -4.2000   -4.8497    0.0000 C   0  0  0
    1.8667   -0.0000    0.0000 H   0  0  0
    2.0766   -2.4601    0.0000 H   0  0  0
    5.0763    0.5118    0.0000 H   0  0  0
  2  1  1
  3  1  1
  2  4  1
  7  3  1
  8  4  1
  4  5  1
  5  6  1
  7  8  1
  7 11  1
  8  9  1
  9 10  1
 10 12  1
  9  6  1
 11 12  1
 11 14  1
 12 16  1
 15 13  1
 13 14  1
 15 16  1
 16 17  2
 17 18  1
 19 18  1
 19 15  1
 15 20  1  1
 19 21  1  1
 21 22  2
 22 23  1
 23 24  1
 24 25  2
 25 21  1
 12 26  1  6
  7 27  1  6
 10 28  1  1
  2 29  1  1
  4 30  1  6
  3 31  1  1
 31 32  1
 32 33  2
 32 34  1
 34 35  2
 35 36  1
 35 37  1
  8 38  1  1
 11 39  1  1
  9 40  1  6
M  END
> <molLogP>
5.948352

> <molLogS>
-6.718493

> <drugLikeness>
0.436946

$$$$
Chalcone - AVM IFA NA Inhibitor
  MOLSOFT 04262021142D

 16 17  0  0  0  0  0  0  0  0999 V2000
    0.0000    0.0000    0.0000 C   0  0  0
    0.7000    1.2124    0.0000 C   0  0  0
    2.1000    1.2124    0.0000 C   0  0  0
    2.8000   -0.0000    0.0000 C   0  0  0
    2.1000   -1.2124    0.0000 C   0  0  0
    0.7000   -1.2124    0.0000 C   0  0  0
    2.8000   -2.4249    0.0000 C   0  0  0
    4.2000   -2.4249    0.0000 C   0  0  0
    4.9000   -3.6373    0.0000 C   0  0  0
    6.3000   -3.6373    0.0000 C   0  0  0
    4.2000   -4.8497    0.0000 O   0  0  0
    7.0000   -2.4249    0.0000 C   0  0  0
    8.4000   -2.4249    0.0000 C   0  0  0
    9.1000   -3.6373    0.0000 C   0  0  0
    8.4000   -4.8497    0.0000 C   0  0  0
    7.0000   -4.8497    0.0000 C   0  0  0
  7  8  2
  8  9  1
  4  5  1
  9 10  1
  2  3  1
  9 11  2
  5  6  2
 10 12  2
  6  1  1
 12 13  1
  1  2  2
 13 14  2
  5  7  1
 14 15  1
  3  4  2
 15 16  2
 16 10  1
M  END
> <molLogP>
3.880269

> <molLogS>
-4.330738

> <drugLikeness>
-1.232746

$$$$
Uncinoside A - AVM Unclear
  MOLSOFT 04262021142D

 27 29  0  0  1  0  0  0  0  0999 V2000
   -0.0000   -2.4249    0.0000 O   0  0  0
    2.8000   -2.4249    0.0000 O   0  0  0
    4.2000   -0.0000    0.0000 O   0  0  0
    2.8000    2.4249    0.0000 O   0  0  0
    0.0000    0.0000    0.0000 O   0  0  0
    0.7000   -1.2124    0.0000 C   0  0  2
    2.1000   -1.2124    0.0000 C   0  0  1
    2.8000   -0.0000    0.0000 C   0  0  2
    2.1000    1.2124    0.0000 C   0  0  1
    0.7000    1.2124    0.0000 C   0  0  1
   -0.0000    2.4249    0.0000 C   0  0  0
   -1.4000   -2.4249    0.0000 C   0  0  0
   -2.1000   -1.2124    0.0000 C   0  0  0
   -3.5000   -1.2124    0.0000 C   0  0  0
   -2.1000   -3.6373    0.0000 C   0  0  0
   -3.5000   -3.6373    0.0000 C   0  0  0
   -4.2000   -2.4249    0.0000 C   0  0  0
   -5.6000   -2.4249    0.0000 C   0  0  0
   -6.3000   -3.6373    0.0000 C   0  0  0
   -5.6000   -4.8497    0.0000 C   0  0  0
   -4.2000   -4.8497    0.0000 O   0  0  0
   -6.3000   -1.2124    0.0000 O   0  0  0
   -6.3000   -6.0622    0.0000 C   0  0  0
   -4.2000   -0.0000    0.0000 O   0  0  0
   -1.4000   -0.0000    0.0000 C   0  0  0
   -1.4000   -4.8497    0.0000 C   0  0  0
   -1.4000    2.4249    0.0000 O   0  0  0
 10  5  1
  6  5  1
  6  7  1
  7  8  1
  8  9  1
  9 10  1
 10 11  1  6
  6  1  1  6
  7  2  1  1
  8  3  1  6
  9  4  1  1
 12 13  2
 13 14  1
 14 17  2
 16 15  2
 15 12  1
 16 17  1
 16 21  1
 17 18  1
 18 19  1
 19 20  2
 20 21  1
 18 22  2
 20 23  1
 14 24  1
 13 25  1
 15 26  1
 12  1  1
 11 27  1
M  END
> <molLogP>
-0.834785

> <molLogS>
-2.644703

> <drugLikeness>
0.463638

$$$$
Genkwanin - AVM Unclear
  MOLSOFT 04262021142D

 21 23  0  0  0  0  0  0  0  0999 V2000
    0.0000    0.0000    0.0000 C   0  0  0
    0.7000    1.2124    0.0000 C   0  0  0
    2.1000    1.2124    0.0000 C   0  0  0
    0.7000   -1.2124    0.0000 C   0  0  0
    2.1000   -1.2124    0.0000 C   0  0  0
    2.8000   -0.0000    0.0000 C   0  0  0
    4.2000   -0.0000    0.0000 C   0  0  0
    4.9000   -1.2124    0.0000 C   0  0  0
    4.2000   -2.4249    0.0000 C   0  0  0
    2.8000   -2.4249    0.0000 O   0  0  0
    4.9000   -3.6373    0.0000 C   0  0  0
    6.3000   -3.6373    0.0000 C   0  0  0
    7.0000   -4.8497    0.0000 C   0  0  0
    6.3000   -6.0622    0.0000 C   0  0  0
    4.9000   -6.0622    0.0000 C   0  0  0
    4.2000   -4.8497    0.0000 C   0  0  0
    4.9000    1.2124    0.0000 O   0  0  0
    2.8000    2.4249    0.0000 O   0  0  0
   -1.4000    0.0000    0.0000 O   0  0  0
   -2.1000   -1.2124    0.0000 C   0  0  0
    7.0000   -7.2746    0.0000 O   0  0  0
  9 10  1
  5  6  1
 11 12  2
  2  3  1
 12 13  1
  3  6  2
 13 14  2
  1  2  2
 14 15  1
  5  4  2
 15 16  2
 16 11  1
  9 11  1
  4  1  1
  7 17  2
  5 10  1
  3 18  1
  6  7  1
  1 19  1
  7  8  1
 19 20  1
  8  9  2
 14 21  1
M  END
> <molLogP>
3.408215

> <molLogS>
-4.372708

> <drugLikeness>
0.370484

$$$$
Cimicifugic Acid A - AVM Viral Attachment Inhibitor
  MOLSOFT 04262021142D

 32 33  0  0  1  0  0  0  0  0999 V2000
    0.0000    0.0000    0.0000 C   0  0  0
    0.7000    1.2124    0.0000 C   0  0  0
    2.1000    1.2124    0.0000 C   0  0  0
    2.8000   -0.0000    0.0000 C   0  0  0
    2.1000   -1.2124    0.0000 C   0  0  0
    0.7000   -1.2124    0.0000 C   0  0  0
    2.8000   -2.4249    0.0000 C   0  0  0
    4.2000   -2.4249    0.0000 C   0  0  2
    5.6000   -2.4249    0.0000 C   0  0  2
    4.2000   -1.0249    0.0000 O   0  0  0
    4.2000   -3.8249    0.0000 C   0  0  0
    2.9876   -4.5249    0.0000 O   0  0  0
    5.4124   -4.5249    0.0000 O   0  0  0
    6.3000   -3.6373    0.0000 O   0  0  0
    6.3000   -1.2124    0.0000 C   0  0  0
    7.7000   -1.2124    0.0000 O   0  0  0
    5.6000   -0.0000    0.0000 O   0  0  0
    7.7000   -3.6373    0.0000 C   0  0  0
    8.4000   -4.8497    0.0000 C   0  0  0
    8.4000   -2.4249    0.0000 O   0  0  0
    9.8000   -4.8497    0.0000 C   0  0  0
   10.5000   -6.0622    0.0000 C   0  0  0
   11.9000   -6.0622    0.0000 C   0  0  0
   12.6000   -7.2746    0.0000 C   0  0  0
   11.9000   -8.4870    0.0000 C   0  0  0
   10.5000   -8.4870    0.0000 C   0  0  0
    9.8000   -7.2746    0.0000 C   0  0  0
    9.8000   -9.6995    0.0000 O   0  0  0
   -0.0000    2.4249    0.0000 O   0  0  0
   -1.4000    0.0000    0.0000 O   0  0  0
   12.6000   -9.6995    0.0000 O   0  0  0
   10.5000  -10.9119    0.0000 C   0  0  0
  8  7  1
 15 16  1
 15 17  2
 14 18  1
  9  8  1  1
 18 19  1
  4  5  1
 18 20  2
  8 10  1  6
 21 19  2
  2  3  1
 21 22  1
  8 11  1
 22 23  2
  5  6  2
 23 24  1
 11 12  2
 24 25  2
  6  1  1
 25 26  1
 11 13  1
 26 27  2
 27 22  1
  1  2  2
 26 28  1
  9 14  1
  2 29  1
  5  7  1
  1 30  1
  9 15  1
 25 31  1
  3  4  2
 28 32  1
M  END
> <molLogP>
1.265479

> <molLogS>
-3.421262

> <drugLikeness>
0.231595

$$$$
Resveratrol - AVM Inhibits Viral Entry
  MOLSOFT 04262021142D

 17 18  0  0  0  0  0  0  0  0999 V2000
   -1.4000    0.0000    0.0000 O   0  0  0
    0.0000    0.0000    0.0000 C   0  0  0
    0.7000   -1.2124    0.0000 C   0  0  0
    2.1000   -1.2124    0.0000 C   0  0  0
    2.8000   -0.0000    0.0000 C   0  0  0
    2.1000    1.2124    0.0000 C   0  0  0
    0.7000    1.2124    0.0000 C   0  0  0
    4.2000   -0.0000    0.0000 C   0  0  0
    4.9000    1.2124    0.0000 C   0  0  0
    6.3000    1.2124    0.0000 C   0  0  0
    7.0000    0.0000    0.0000 C   0  0  0
    8.4000    0.0000    0.0000 C   0  0  0
    9.1000   -1.2124    0.0000 O   0  0  0
    9.1000    1.2124    0.0000 C   0  0  0
    8.4000    2.4249    0.0000 C   0  0  0
    9.1000    3.6373    0.0000 O   0  0  0
    7.0000    2.4249    0.0000 C   0  0  0
  1  2  1
  2  3  2
  3  4  1
  4  5  2
  5  6  1
  6  7  2
  2  7  1
  5  8  1
  8  9  2
  9 10  1
 10 11  2
 11 12  1
 12 13  1
 12 14  2
 14 15  1
 15 16  1
 15 17  2
 10 17  1
M  END
> <molLogP>
3.647885

> <molLogS>
-3.840964

> <drugLikeness>
-1.004151

$$$$
Carvacrol (Oragano) - AVA HSV, RSV
  MOLSOFT 04262021142D

 11 11  0  0  0  0  0  0  0  0999 V2000
    0.0000    0.0000    0.0000 C   0  0  0
    0.7000    1.2124    0.0000 C   0  0  0
    2.1000    1.2124    0.0000 C   0  0  0
    2.8000   -0.0000    0.0000 C   0  0  0
    2.1000   -1.2124    0.0000 C   0  0  0
    0.7000   -1.2124    0.0000 C   0  0  0
    2.8000    2.4249    0.0000 C   0  0  0
    2.8000   -2.4249    0.0000 O   0  0  0
   -0.0000   -2.4249    0.0000 C   0  0  0
    4.2000    2.4249    0.0000 C   0  0  0
    2.1000    3.6373    0.0000 C   0  0  0
  5  6  2
  6  1  1
  1  2  2
  3  7  1
  3  4  2
  5  8  1
  6  9  1
  4  5  1
  7 10  1
  2  3  1
  7 11  1
M  END
> <molLogP>
2.997262

> <molLogS>
-2.77876

> <drugLikeness>
-0.353028

$$$$
Cineole (Sage) - AVA HSV, HIV
  MOLSOFT 04262021142D

 11 12  0  0  0  0  0  0  0  0999 V2000
    0.0000    0.0000    0.0000 C   0  0  0
    0.7000    1.2124    0.0000 C   0  0  0
    2.1000   -1.2124    0.0000 O   0  0  0
    3.8725   -0.8999    0.0000 C   0  0  0
    2.8000   -0.0000    0.0000 C   0  0  0
    3.8725    0.8999    0.0000 C   0  0  0
    0.7000   -1.2124    0.0000 C   0  0  3
    0.1518   -2.5007    0.0000 C   0  0  0
    2.1000    1.2124    0.0000 C   0  0  1
   -1.0500    0.6062    0.0000 C   0  0  0
   -0.3500    1.8187    0.0000 C   0  0  0
  9  5  1
  9  2  1  1
  5  3  1
  7  3  1
  7  1  1
  1  2  1
  7 10  1
  9 11  1
 11 10  1
  5  4  1
  5  6  1
  7  8  1
M  END
> <molLogP>
2.932274

> <molLogS>
-3.167316

> <drugLikeness>
-1.038138

$$$$
viridiflorin (Sage) - AVA HSV, HIV
  MOLSOFT 04262021142D

 29 31  0  0  0  0  0  0  0  0999 V2000
    0.0000    0.0000    0.0000 C   0  0  0
    0.7000    1.2124    0.0000 C   0  0  0
    2.1000    1.2124    0.0000 C   0  0  0
    0.7000   -1.2124    0.0000 C   0  0  0
    2.1000   -1.2124    0.0000 C   0  0  0
    2.8000   -0.0000    0.0000 C   0  0  0
    4.2000   -0.0000    0.0000 C   0  0  0
    4.9000   -1.2124    0.0000 C   0  0  0
    4.2000   -2.4249    0.0000 C   0  0  0
    2.8000   -2.4249    0.0000 O   0  0  0
    4.9000    1.2124    0.0000 O   0  0  0
   -1.4000    0.0000    0.0000 O   0  0  0
    2.8000    2.4249    0.0000 O   0  0  0
    6.3000   -1.2124    0.0000 C   0  0  0
    7.0000   -0.0000    0.0000 C   0  0  0
    8.4000   -0.0000    0.0000 C   0  0  0
    9.1000   -1.2124    0.0000 C   0  0  0
    8.4000   -2.4249    0.0000 C   0  0  0
    7.0000   -2.4249    0.0000 C   0  0  0
    6.3000   -3.6373    0.0000 O   0  0  0
    7.0000   -4.8497    0.0000 C   0  0  0
    9.1000    1.2124    0.0000 O   0  0  0
    8.4000    2.4249    0.0000 C   0  0  0
   10.5000   -1.2124    0.0000 O   0  0  0
   -0.0000    2.4249    0.0000 C   0  0  0
   -1.4000    2.4249    0.0000 C   0  0  0
   -2.1000    3.6373    0.0000 C   0  0  0
   -1.4000    4.8497    0.0000 C   0  0  0
   -3.5000    3.6373    0.0000 C   0  0  0
  8 14  1
  1  2  2
 14 15  2
  5  4  2
 15 16  1
  4  1  1
 16 17  2
  5 10  1
 17 18  1
  6  7  1
 18 19  2
 19 14  1
  7  8  1
 19 20  1
  8  9  2
 20 21  1
  9 10  1
 16 22  1
  5  6  1
 22 23  1
  7 11  2
 17 24  1
  2 25  1
  1 12  1
 25 26  1
  2  3  1
 26 27  2
  3 13  1
 27 28  1
  3  6  2
 27 29  1
M  END
> <molLogP>
4.386584

> <molLogS>
-5.304968

> <drugLikeness>
0.317598

$$$$
caryophyllene (Sage) - AVA HSV, HIV
  MOLSOFT 04262021142D

 17 18  0  0  1  0  0  0  0  0999 V2000
    0.0000   -0.0000    0.0000 C   0  0  0
    0.4788    1.3156    0.0000 C   0  0  0
    1.6913    2.0156    0.0000 C   0  0  2
    0.4788   -1.3156    0.0000 C   0  0  0
    1.6913   -2.0156    0.0000 C   0  0  0
    3.0700    1.7725    0.0000 C   0  0  1
    3.9699    0.7000    0.0000 C   0  0  0
    3.9699   -0.7000    0.0000 C   0  0  0
    3.0700   -1.7725    0.0000 C   0  0  0
    1.9344    3.3943    0.0000 C   0  0  0
    3.3131    3.1512    0.0000 C   0  0  0
    3.7700   -2.9849    0.0000 C   0  0  0
   -0.5936    2.2155    0.0000 C   0  0  0
    4.6918    2.9081    0.0000 C   0  0  0
    3.5562    4.5299    0.0000 C   0  0  0
    0.9267    2.5509    0.0000 H   0  0  0
    3.9715    2.0140    0.0000 H   0  0  0
  8  9  1
  3  6  1
  3 10  1
  1  2  1
  6 11  1
 10 11  1
  1  4  1
  9 12  1
  3  2  1
  2 13  2
  5  4  1
 11 14  1
  5  9  2
 11 15  1
  6  7  1
  3 16  1  6
  7  8  1
  6 17  1  1
M  END
> <molLogP>
5.403309

> <molLogS>
-4.447629

> <drugLikeness>
-1.736945

$$$$
Anethole (Fennel) - AVA HSV
  MOLSOFT 04262021142D

 11 11  0  0  0  0  0  0  0  0999 V2000
   -2.1000   -1.2124    0.0000 C   0  0  0
   -1.4000    0.0000    0.0000 O   0  0  0
    0.0000    0.0000    0.0000 C   0  0  0
    0.7000   -1.2124    0.0000 C   0  0  0
    2.1000   -1.2124    0.0000 C   0  0  0
    2.8000   -0.0000    0.0000 C   0  0  0
    4.2000   -0.0000    0.0000 C   0  0  0
    4.9000    1.2124    0.0000 C   0  0  0
    6.3000    1.2124    0.0000 C   0  0  0
    2.1000    1.2124    0.0000 C   0  0  0
    0.7000    1.2124    0.0000 C   0  0  0
  1  2  1
  2  3  1
  3  4  1
  4  5  2
  5  6  1
  6  7  1
  8  7  2
  8  9  1
  6 10  2
 10 11  1
  3 11  2
M  END
> <molLogP>
3.286634

> <molLogS>
-2.901114

> <drugLikeness>
-1.676095

$$$$
Menthol (Peppermint) - AVA RSV
  MOLSOFT 04262021142D

 11 11  0  0  0  0  0  0  0  0999 V2000
    0.0000    0.0000    0.0000 C   0  0  0
    0.7000   -1.2124    0.0000 C   0  0  0
    2.1000   -1.2124    0.0000 C   0  0  3
    2.8000   -0.0000    0.0000 C   0  0  3
    2.1000    1.2124    0.0000 C   0  0  0
    0.7000    1.2124    0.0000 C   0  0  3
    2.8000   -2.4249    0.0000 C   0  0  0
    2.1000   -3.6373    0.0000 C   0  0  0
    4.2000   -2.4249    0.0000 C   0  0  0
   -0.0000    2.4249    0.0000 C   0  0  0
    4.2000   -0.0000    0.0000 O   0  0  0
  4  5  1
  6  5  1
  3  7  1
  1  2  1
  7  8  1
  6  1  1
  7  9  1
  3  2  1
  6 10  1
  3  4  1
  4 11  1
M  END
> <molLogP>
2.947917

> <molLogS>
-2.568141

> <drugLikeness>
-1.330965

$$$$
Rosmarinic Acid (Peppermint) - AVA RSV
  MOLSOFT 04262021142D

 26 27  0  0  1  0  0  0  0  0999 V2000
    0.0000    0.0000    0.0000 C   0  0  0
    0.7000    1.2124    0.0000 C   0  0  0
    2.1000    1.2124    0.0000 C   0  0  0
    2.8000   -0.0000    0.0000 C   0  0  0
    2.1000   -1.2124    0.0000 C   0  0  0
    0.7000   -1.2124    0.0000 C   0  0  0
   -1.4000    0.0000    0.0000 O   0  0  0
   -0.0000    2.4249    0.0000 O   0  0  0
    2.8000   -2.4249    0.0000 C   0  0  0
    4.2000   -2.4249    0.0000 C   0  0  0
    4.9000   -3.6373    0.0000 C   0  0  0
    6.3000   -3.6373    0.0000 O   0  0  0
    4.2000   -4.8497    0.0000 O   0  0  0
    7.0000   -4.8497    0.0000 C   0  0  2
    8.4000   -4.8497    0.0000 C   0  0  0
    6.3000   -6.0622    0.0000 C   0  0  0
    4.9000   -6.0622    0.0000 O   0  0  0
    7.0000   -7.2746    0.0000 O   0  0  0
    9.1000   -6.0622    0.0000 C   0  0  0
   10.5000   -6.0622    0.0000 C   0  0  0
   11.2000   -7.2746    0.0000 C   0  0  0
   10.5000   -8.4870    0.0000 C   0  0  0
    9.1000   -8.4870    0.0000 C   0  0  0
    8.4000   -7.2746    0.0000 C   0  0  0
   12.6000   -7.2746    0.0000 O   0  0  0
   11.2000   -9.6995    0.0000 O   0  0  0
 11 13  2
  1  2  2
 14 12  1
  1  7  1
 14 15  1  6
  3  4  2
 14 16  1
  2  8  1
 16 17  1
 16 18  2
  5  9  1
 15 19  1
  4  5  1
 19 20  2
  9 10  2
 20 21  1
  2  3  1
 21 22  2
 10 11  1
 22 23  1
  5  6  2
 23 24  2
 24 19  1
  6  1  1
 21 25  1
 11 12  1
 22 26  1
M  END
> <molLogP>
2.444279

> <molLogS>
-3.480412

> <drugLikeness>
0.365824

$$$$
Oleanolic Acid (Rosemary) - AVA HIV, Influenza
  MOLSOFT 04262021142D

 36 40  0  0  1  0  0  0  0  0999 V2000
    0.0000    0.0000    0.0000 C   0  0  0
    0.7000   -1.2124    0.0000 C   0  0  1
    2.1000   -1.2124    0.0000 C   0  0  0
    0.7000    1.2124    0.0000 C   0  0  0
    2.1000    1.2124    0.0000 C   0  0  1
    2.8000   -0.0000    0.0000 C   0  0  1
    4.2000    0.0000    0.0000 C   0  0  0
    4.9000    1.2124    0.0000 C   0  0  0
    2.8000    2.4249    0.0000 C   0  0  2
    4.2000    2.4249    0.0000 C   0  0  2
    2.8000    4.8497    0.0000 C   0  0  0
    2.1000    3.6373    0.0000 C   0  0  0
    4.2000    4.8497    0.0000 C   0  0  0
    4.9000    3.6373    0.0000 C   0  0  1
    6.3000    3.6373    0.0000 C   0  0  0
    7.0000    4.8497    0.0000 C   0  0  0
    4.9000    6.0622    0.0000 C   0  0  1
    6.3000    6.0622    0.0000 C   0  0  2
    7.0000    7.2746    0.0000 C   0  0  0
    6.3000    8.4870    0.0000 C   0  0  0
    4.9000    8.4870    0.0000 C   0  0  0
    4.2000    7.2746    0.0000 C   0  0  0
    1.8569   -2.5912    0.0000 C   0  0  0
    3.4156   -1.6913    0.0000 C   0  0  0
    3.2667   -0.8083    0.0000 H   0  0  0
    1.4000    2.4249    0.0000 C   0  0  0
    5.6000    2.4249    0.0000 C   0  0  0
    3.2667    1.6166    0.0000 H   0  0  0
    3.9667    6.0622    0.0000 H   0  0  0
    5.6000    2.4249    0.0000 C   0  0  0
    5.1431    9.8658    0.0000 C   0  0  0
    3.5844    8.9659    0.0000 C   0  0  0
    7.7000    6.0622    0.0000 C   0  0  0
    8.4000    4.8497    0.0000 O   0  0  0
    8.4000    7.2746    0.0000 O   0  0  0
   -0.0000   -2.4249    0.0000 O   0  0  0
 17 22  1
 18 19  1
 19 20  1
 20 21  1
 21 22  1
  6  3  1
  3 23  1
  5  4  1
  3 24  1
  5  6  1
  6 25  1  6
  9 12  1
  5 26  1  1
 10 14  1
 10 27  1  1
 13 11  2
  9 28  1  6
 11 12  1
 17 29  1  1
 14 13  1
 14 30  1  6
 21 31  1
  2  1  1
 21 32  1
 18 33  1  1
  1  4  1
 33 34  2
 17 13  1
 33 35  1
 14 15  1
  2 36  1  1
 15 16  1
 18 16  1
 17 18  1
  5  9  1
  6  7  1
  7  8  1
 10  8  1
  9 10  1
  2  3  1
M  END
> <molLogP>
7.796159

> <molLogS>
-7.962847

> <drugLikeness>
0.37056

$$$$
Cichoric (Echinacea) - AVA Influenza
  MOLSOFT 04262021142D

 34 35  0  0  1  0  0  0  0  0999 V2000
    7.0000   -4.8497    0.0000 C   0  0  2
    8.4000   -4.8497    0.0000 C   0  0  2
    6.3000   -6.0622    0.0000 C   0  0  0
    9.1000   -3.6373    0.0000 C   0  0  0
    9.1000   -6.0622    0.0000 O   0  0  0
    6.3000   -3.6373    0.0000 O   0  0  0
    4.9000   -3.6373    0.0000 C   0  0  0
   10.5000   -6.0622    0.0000 C   0  0  0
    4.2000   -2.4249    0.0000 C   0  0  0
   11.2000   -7.2746    0.0000 C   0  0  0
    0.0000    0.0000    0.0000 C   0  0  0
   15.4000   -9.6995    0.0000 C   0  0  0
   12.6000   -7.2746    0.0000 C   0  0  0
    2.8000   -2.4249    0.0000 C   0  0  0
   10.5000   -3.6373    0.0000 O   0  0  0
    4.9000   -6.0622    0.0000 O   0  0  0
    0.7000    1.2124    0.0000 C   0  0  0
   14.7000  -10.9119    0.0000 C   0  0  0
    7.0000   -7.2746    0.0000 O   0  0  0
    8.4000   -2.4249    0.0000 O   0  0  0
    0.7000   -1.2124    0.0000 C   0  0  0
   14.7000   -8.4870    0.0000 C   0  0  0
   11.2000   -4.8497    0.0000 O   0  0  0
    4.2000   -4.8497    0.0000 O   0  0  0
   13.3000   -8.4870    0.0000 C   0  0  0
    2.1000   -1.2124    0.0000 C   0  0  0
    2.1000    1.2124    0.0000 C   0  0  0
   13.3000  -10.9119    0.0000 C   0  0  0
   -1.4000    0.0000    0.0000 O   0  0  0
   16.8000   -9.6995    0.0000 O   0  0  0
   12.6000   -9.6995    0.0000 C   0  0  0
    2.8000   -0.0000    0.0000 C   0  0  0
   15.4000  -12.1244    0.0000 O   0  0  0
   -0.0000    2.4249    0.0000 O   0  0  0
  1  2  1  6
  1  3  1
  2  4  1
  2  5  1  6
  1  6  1
  7  6  1
  8  5  1
  9  7  1
 10  8  1
 11 21  1
 12 22  1
 13 10  2
 14  9  2
 15  4  1
 16  3  1
 17 27  1
 18 28  1
 19  3  2
 20  4  2
 21 26  2
 22 25  2
 23  8  2
 24  7  2
 25 13  1
 26 14  1
 27 32  2
 28 31  2
 29 11  1
 30 12  1
 31 25  1
 32 26  1
 33 18  1
 34 17  1
 11 17  2
 12 18  2
M  END
> <molLogP>
1.898002

> <molLogS>
-4.558103

> <drugLikeness>
-0.234034

$$$$
Glycyrrhizin (Licorice) - AVA SARS COV
  MOLSOFT 04262021142D

 61 67  0  0  1  0  0  0  0  0999 V2000
    0.0000    0.0000    0.0000 C   0  0  0
    2.1000    1.2124    0.0000 C   0  0  1
    0.7000    1.2124    0.0000 C   0  0  2
    4.2000    0.0000    0.0000 C   0  0  2
   10.5000    1.2124    0.0000 C   0  0  1
    9.1000    3.6373    0.0000 C   0  0  1
   14.7000    1.2124    0.0000 C   0  0  1
    2.8000   -0.0000    0.0000 C   0  0  1
   12.6000    0.0000    0.0000 C   0  0  2
    9.1000    1.2124    0.0000 C   0  0  2
   13.3000    1.2124    0.0000 O   0  0  0
    8.4000    2.4249    0.0000 O   0  0  0
    0.7000   -1.2124    0.0000 C   0  0  0
   13.3000   -1.2124    0.0000 C   0  0  1
    2.1000   -1.2124    0.0000 C   0  0  0
   11.2000    2.4249    0.0000 C   0  0  2
   10.5000    3.6373    0.0000 C   0  0  2
   15.4000    0.0000    0.0000 C   0  0  2
    4.9000    1.2124    0.0000 C   0  0  2
   -1.4000    0.0000    0.0000 C   0  0  2
   14.7000   -1.2124    0.0000 C   0  0  2
   11.2000    0.0000    0.0000 O   0  0  0
    6.3000    1.2124    0.0000 C   0  0  0
   -3.5000   -1.2124    0.0000 C   0  0  1
   -2.1000   -1.2124    0.0000 C   0  0  0
   -2.1000    1.2124    0.0000 C   0  0  1
    8.4000    4.8497    0.0000 C   0  0  0
   15.4000    2.4249    0.0000 C   0  0  0
    8.4000    0.0000    0.0000 O   0  0  0
    7.0000    0.0000    0.0000 C   0  0  1
    2.8000    2.4249    0.0000 C   0  0  0
   -3.2569   -2.5912    0.0000 C   0  0  0
    4.9000   -1.2124    0.0000 C   0  0  0
    0.0000    2.4249    0.0000 C   0  0  0
    4.2000    2.4249    0.0000 C   0  0  0
    2.8000   -2.4249    0.0000 O   0  0  0
   -1.4000    2.4249    0.0000 C   0  0  0
    6.3000   -1.2124    0.0000 C   0  0  0
   -4.2000    0.0000    0.0000 C   0  0  0
   -3.5000    1.2124    0.0000 C   0  0  0
    9.1000    6.0622    0.0000 O   0  0  0
   16.8000    2.4249    0.0000 O   0  0  0
   -4.3294   -3.4911    0.0000 O   0  0  0
   12.6000   -2.4249    0.0000 O   0  0  0
   11.2000    4.8497    0.0000 O   0  0  0
   16.8000    0.0000    0.0000 O   0  0  0
   12.6000    2.4249    0.0000 O   0  0  0
   15.4000   -2.4249    0.0000 O   0  0  0
    1.4000    2.4249    0.0000 C   0  0  0
    3.5000   -1.2124    0.0000 C   0  0  0
    1.4000    0.0000    0.0000 C   0  0  0
   14.7000    3.6373    0.0000 O   0  0  0
    7.0000    4.8497    0.0000 O   0  0  0
   -1.9413   -3.0700    0.0000 O   0  0  0
    7.6156    1.6913    0.0000 C   0  0  0
    6.0569    2.5912    0.0000 C   0  0  0
   -4.8156   -1.6913    0.0000 C   0  0  0
   -2.8000    2.4249    0.0000 C   0  0  0
    3.2667   -0.8083    0.0000 H   0  0  0
    5.3667    2.0207    0.0000 H   0  0  0
   -0.9333   -0.8083    0.0000 H   0  0  0
  2  3  1
  3  1  1
  4  8  1
  5 10  1
  6 12  1
  7 11  1
  8 15  1
  9 22  1  6
 10 29  1  1
  9 11  1
 10 12  1
 13  1  2
 14  9  1
 15 13  1
 16  5  1
 17  6  1
 18 21  1
 19  4  1
 20  1  1
 21 14  1
  5 22  1  1
 19 23  1
 24 25  1
 20 25  1
 26 20  1
  6 27  1  6
  7 28  1  6
 30 29  1  1
 30 38  1
  2 31  1
 24 32  1
  4 33  1
  3 34  1
 35 31  1
 36 15  2
 26 37  1
 38 33  1
 39 40  1
 26 40  1
 41 27  2
 42 28  2
 43 32  2
 14 44  1  1
 17 45  1  1
 18 46  1  1
 16 47  1  6
 21 48  1  6
  2 49  1  1
  4 50  1  1
  3 51  1  6
 52 28  1
 53 27  1
 54 32  1
 55 23  1
 56 23  1
 24 57  1  6
 26 58  1  1
  8 59  1  6
 19 60  1  6
 20 61  1  1
 34 37  1
  8  2  1
 24 39  1
 19 35  1
 30 23  1
 16 17  1
  7 18  1
M  END
> <molLogP>
2.055795

> <molLogS>
-7.417314

> <drugLikeness>
0.7285

$$$$
Liquiritigenin (Licorice) - AVA Sars COV
  MOLSOFT 04262021142D

 19 21  0  0  1  0  0  0  0  0999 V2000
   -1.4000    0.0000    0.0000 O   0  0  0
    0.0000    0.0000    0.0000 C   0  0  0
    0.7000   -1.2124    0.0000 C   0  0  0
    2.1000   -1.2124    0.0000 C   0  0  0
    2.8000   -0.0000    0.0000 C   0  0  0
    2.1000    1.2124    0.0000 C   0  0  0
    0.7000    1.2124    0.0000 C   0  0  0
    4.2000    0.0000    0.0000 C   0  0  2
    4.9000   -1.2124    0.0000 C   0  0  0
    6.3000   -1.2124    0.0000 C   0  0  0
    7.0000   -2.4249    0.0000 O   0  0  0
    7.0000    0.0000    0.0000 C   0  0  0
    8.4000    0.0000    0.0000 C   0  0  0
    9.1000    1.2124    0.0000 C   0  0  0
    8.4000    2.4249    0.0000 C   0  0  0
    9.1000    3.6373    0.0000 O   0  0  0
    7.0000    2.4249    0.0000 C   0  0  0
    6.3000    1.2124    0.0000 C   0  0  0
    4.9000    1.2124    0.0000 O   0  0  0
  1  2  1
  2  3  2
  3  4  1
  4  5  2
  5  6  1
  6  7  2
  2  7  1
  8  5  1  1
  8  9  1
  9 10  1
 10 11  2
 10 12  1
 12 13  2
 13 14  1
 14 15  2
 15 16  1
 15 17  1
 17 18  2
 12 18  1
 18 19  1
  8 19  1
M  END
> <molLogP>
2.679148

> <molLogS>
-3.766932

> <drugLikeness>
0.787039

$$$$
Glabridin (Licorice) - AVA Sars COV
  MOLSOFT 04262021142D

 24 27  0  0  1  0  0  0  0  0999 V2000
    0.0000    0.0000    0.0000 C   0  0  0
    0.7000    1.2124    0.0000 C   0  0  0
    0.7000   -1.2124    0.0000 C   0  0  0
    2.1000   -1.2124    0.0000 C   0  0  0
    2.8000   -2.4249    0.0000 C   0  0  0
    2.1000   -3.6373    0.0000 C   0  0  0
    0.7000   -3.6373    0.0000 C   0  0  0
    0.0000   -2.4249    0.0000 O   0  0  0
    2.8000   -0.0000    0.0000 C   0  0  0
    2.1000    1.2124    0.0000 C   0  0  0
    2.8000    2.4249    0.0000 C   0  0  0
    4.2000    2.4249    0.0000 C   0  0  1
    4.9000    1.2124    0.0000 C   0  0  0
    4.2000    0.0000    0.0000 O   0  0  0
   -0.6156   -4.1161    0.0000 C   0  0  0
    0.9431   -5.0160    0.0000 C   0  0  0
    4.9000    3.6373    0.0000 C   0  0  0
    4.2000    4.8497    0.0000 C   0  0  0
    4.9000    6.0622    0.0000 C   0  0  0
    6.3000    6.0622    0.0000 C   0  0  0
    7.0000    4.8497    0.0000 C   0  0  0
    6.3000    3.6373    0.0000 C   0  0  0
    7.0000    7.2746    0.0000 O   0  0  0
    2.8000    4.8497    0.0000 O   0  0  0
  3  4  1
  9 14  1
 10 11  1
 12 11  1
 12 13  1
 13 14  1
  3  8  1
  7 15  1
  4  5  1
  7 16  1
  5  6  2
  6  7  1
 17 18  2
  7  8  1
 18 19  1
  9 10  1
 19 20  2
  3  1  2
 20 21  1
 21 22  2
 22 17  1
 12 17  1  6
  1  2  1
 20 23  1
  2 10  2
 18 24  1
  9  4  2
M  END
> <molLogP>
4.157417

> <molLogS>
-5.191656

> <drugLikeness>
0.063877

$$$$
Astragalin - AVA HepC
  MOLSOFT 04262021142D

 32 35  0  0  1  0  0  0  0  0999 V2000
    0.0000    0.0000    0.0000 C   0  0  0
    0.7000    1.2124    0.0000 C   0  0  0
    2.1000    1.2124    0.0000 C   0  0  0
    2.8000   -0.0000    0.0000 C   0  0  0
    2.1000   -1.2124    0.0000 C   0  0  0
    0.7000   -1.2124    0.0000 C   0  0  0
    0.0000   -2.4249    0.0000 O   0  0  0
    0.7000   -3.6373    0.0000 C   0  0  0
    2.1000   -3.6373    0.0000 C   0  0  0
    2.8000   -2.4249    0.0000 C   0  0  0
    0.0000   -4.8497    0.0000 C   0  0  0
    0.7000   -6.0622    0.0000 C   0  0  0
    0.0000   -7.2746    0.0000 C   0  0  0
   -1.4000   -7.2746    0.0000 C   0  0  0
   -2.1000   -6.0622    0.0000 C   0  0  0
   -1.4000   -4.8497    0.0000 C   0  0  0
    4.2000   -4.8497    0.0000 C   0  0  2
    4.9000   -3.6373    0.0000 O   0  0  0
    6.3000   -3.6373    0.0000 C   0  0  1
    7.0000   -4.8497    0.0000 C   0  0  2
    6.3000   -6.0622    0.0000 C   0  0  1
    4.9000   -6.0622    0.0000 C   0  0  1
    2.8000   -4.8497    0.0000 O   0  0  0
    4.2000   -7.2746    0.0000 O   0  0  0
    7.0000   -7.2746    0.0000 O   0  0  0
    8.4000   -4.8497    0.0000 O   0  0  0
    7.0000   -2.4249    0.0000 C   0  0  0
    4.2000   -2.4249    0.0000 O   0  0  0
   -0.0000    2.4249    0.0000 O   0  0  0
    4.2000   -0.0000    0.0000 O   0  0  0
   -2.1000   -8.4870    0.0000 O   0  0  0
    6.3000   -1.2124    0.0000 O   0  0  0
  1  2  1
  1  6  2
  2  3  2
  3  4  1
  4  5  2
 10  5  1
  5  6  1
  6  7  1
  7  8  1
  8  9  2
  9 10  1
  8 11  1
 11 12  1
 11 16  2
 12 13  2
 13 14  1
 14 15  2
 15 16  1
 17 18  1
 22 17  1
 19 18  1
 19 20  1
 20 21  1
 21 22  1
 17 23  1  6
  9 23  1
 22 24  1  1
 21 25  1  6
 20 26  1  1
 19 27  1  6
 10 28  2
  2 29  1
  4 30  1
 14 31  1
 27 32  1
M  END
> <molLogP>
-0.258858

> <molLogS>
-3.72398

> <drugLikeness>
0.665769

$$$$
Gingerol (Ginger) - AVA RSV, Influenza
  MOLSOFT 04262021142D

 21 21  0  0  1  0  0  0  0  0999 V2000
    0.0000    0.0000    0.0000 C   0  0  0
    0.7000    1.2124    0.0000 C   0  0  0
    2.1000    1.2124    0.0000 C   0  0  0
    2.8000   -0.0000    0.0000 C   0  0  0
    2.1000   -1.2124    0.0000 C   0  0  0
    0.7000   -1.2124    0.0000 C   0  0  0
   -1.4000    0.0000    0.0000 O   0  0  0
   -2.1000   -1.2124    0.0000 C   0  0  0
   -0.0000    2.4249    0.0000 O   0  0  0
    2.8000   -2.4249    0.0000 C   0  0  0
    4.2000   -2.4249    0.0000 C   0  0  0
    4.9000   -3.6373    0.0000 C   0  0  0
    6.3000   -3.6373    0.0000 C   0  0  0
    4.2000   -4.8497    0.0000 O   0  0  0
    7.0000   -4.8497    0.0000 C   0  0  2
    8.4000   -4.8497    0.0000 C   0  0  0
    6.3000   -6.0622    0.0000 O   0  0  0
    9.1000   -6.0622    0.0000 C   0  0  0
   10.5000   -6.0622    0.0000 C   0  0  0
   11.2000   -7.2746    0.0000 C   0  0  0
   12.6000   -7.2746    0.0000 C   0  0  0
  2  3  1
 10 11  1
  5  6  2
 11 12  1
  6  1  1
 12 13  1
  1  2  2
 12 14  2
  1  7  1
 15 13  1
  3  4  2
 15 16  1
  7  8  1
 15 17  1  6
 16 18  1
  2  9  1
 18 19  1
  4  5  1
 19 20  1
  5 10  1
 20 21  1
M  END
> <molLogP>
3.827029

> <molLogS>
-3.252869

> <drugLikeness>
-0.55609

$$$$
Zingerone (Ginger) - AVA RSV, Influenza
  MOLSOFT 04262021142D

 14 14  0  0  0  0  0  0  0  0999 V2000
    0.0000    0.0000    0.0000 C   0  0  0
    0.7000    1.2124    0.0000 C   0  0  0
    2.1000    1.2124    0.0000 C   0  0  0
    2.8000   -0.0000    0.0000 C   0  0  0
    2.1000   -1.2124    0.0000 C   0  0  0
    0.7000   -1.2124    0.0000 C   0  0  0
    2.8000   -2.4249    0.0000 C   0  0  0
    4.2000   -2.4249    0.0000 C   0  0  0
   -0.0000    2.4249    0.0000 O   0  0  0
   -1.4000    0.0000    0.0000 O   0  0  0
   -2.1000   -1.2124    0.0000 C   0  0  0
    4.9000   -3.6373    0.0000 C   0  0  0
    4.2000   -4.8497    0.0000 C   0  0  0
    6.3000   -3.6373    0.0000 O   0  0  0
  5  7  1
  3  4  2
  7  8  1
  2  9  1
  4  5  1
  1 10  1
  2  3  1
 10 11  1
  5  6  2
  8 12  1
  6  1  1
 12 13  1
  1  2  2
 12 14  2
M  END
> <molLogP>
1.999405

> <molLogS>
-2.32406

> <drugLikeness>
-0.542588

$$$$
Colistin - AVA 3CLPro
  MOLSOFT 04262021142D

 86 85  0  0  1  0  0  0  0  0999 V2000
    2.3791   -1.2124    0.0000 C   0  0  0
    3.0791    0.0000    0.0000 S   0  0  0
    4.2915   -0.7000    0.0000 O   0  0  0
    1.8667    0.7000    0.0000 O   0  0  0
    3.7791    1.2124    0.0000 O   0  0  0
   10.8360   -4.7444    0.0000 C   0  0  0
   10.3267   -3.3574    0.0000 C   0  0  2
   10.8844   -2.0733    0.0000 N   0  0  0
   12.2457   -1.4989    0.0000 C   0  0  0
   12.9117   -0.1800    0.0000 C   0  0  1
   14.2309    0.2889    0.0000 N   0  0  0
   15.5798   -0.3140    0.0000 C   0  0  0
   16.9983    0.0996    0.0000 C   0  0  2
   18.2414   -0.5445    0.0000 N   0  0  0
   18.7215   -1.9419    0.0000 C   0  0  0
   19.9919   -2.6963    0.0000 C   0  0  1
   20.3697   -4.0444    0.0000 C   0  0  0
   20.3697   -5.4444    0.0000 C   0  0  0
   16.9983   -9.5883    0.0000 N   0  0  0
   15.5798   -9.1748    0.0000 C   0  0  0
   14.2309   -9.7776    0.0000 C   0  0  2
   12.9117   -9.3088    0.0000 N   0  0  0
   12.2457   -7.9898    0.0000 C   0  0  0
   10.8844   -7.4154    0.0000 C   0  0  2
   10.3267   -6.1313    0.0000 N   0  0  0
   15.4843   -7.7780    0.0000 O   0  0  0
   13.9460  -11.1483    0.0000 C   0  0  0
   14.9907  -12.0804    0.0000 C   0  0  0
   14.7058  -13.4511    0.0000 N   0  0  0
   13.2013   -6.9667    0.0000 O   0  0  0
    9.6882   -8.1429    0.0000 C   0  0  0
    9.7201   -9.5425    0.0000 C   0  0  0
    8.5239  -10.2699    0.0000 N   0  0  0
   12.2360   -4.7444    0.0000 O   0  0  0
    8.9786   -2.9797    0.0000 C   0  0  0
    7.9774   -3.9583    0.0000 C   0  0  0
    8.3244   -5.3147    0.0000 C   0  0  0
    6.6293   -3.5806    0.0000 C   0  0  0
   13.2013   -2.5221    0.0000 O   0  0  0
   12.2676    1.0631    0.0000 C   0  0  0
   10.8691    1.1268    0.0000 C   0  0  0
   10.1146   -0.0525    0.0000 C   0  0  0
   10.2250    2.3698    0.0000 C   0  0  0
   15.4843   -1.7107    0.0000 O   0  0  0
   17.4672    1.4187    0.0000 C   0  0  0
   16.5591    2.4843    0.0000 C   0  0  0
   17.6355   -2.8254    0.0000 O   0  0  0
   21.2760   -2.1385    0.0000 N   0  0  0
   21.4351   -0.7476    0.0000 C   0  0  0
   22.7192   -0.1898    0.0000 C   0  0  1
   20.3100    0.0856    0.0000 O   0  0  0
   22.8782    1.2011    0.0000 N   0  0  0
   24.1623    1.7589    0.0000 C   0  0  0
   25.2873    0.9257    0.0000 O   0  0  0
   24.3213    3.1498    0.0000 C   0  0  1
   25.6054    3.7076    0.0000 N   0  0  0
   23.1962    3.9830    0.0000 C   0  0  2
   23.3552    5.3739    0.0000 O   0  0  0
   21.9121    3.4252    0.0000 C   0  0  0
   23.8442   -1.0230    0.0000 C   0  0  0
   25.7644    5.0985    0.0000 C   0  0  0
   27.0485    5.6563    0.0000 C   0  0  2
   24.6393    5.9317    0.0000 O   0  0  0
   17.0280    3.8035    0.0000 N   0  0  0
   26.2534   -1.2984    0.0000 N   0  0  0
   28.1736    4.8231    0.0000 C   0  0  0
   27.2075    7.0472    0.0000 N   0  0  0
   25.1283   -0.4652    0.0000 C   0  0  0
   29.4577    5.3809    0.0000 C   0  0  0
   30.5827    4.5477    0.0000 N   0  0  0
   28.4916    7.6050    0.0000 C   0  0  0
   28.6506    8.9959    0.0000 C   0  0  0
   29.6167    6.7718    0.0000 O   0  0  0
   29.9347    9.5537    0.0000 C   0  0  0
   30.0937   10.9446    0.0000 C   0  0  0
   31.3778   11.5024    0.0000 C   0  0  3
   31.5368   12.8933    0.0000 C   0  0  0
   32.8209   13.4511    0.0000 C   0  0  0
   19.9919   -6.7925    0.0000 N   0  0  0
   18.7215   -7.5469    0.0000 C   0  0  0
   17.6355   -6.6634    0.0000 O   0  0  0
   18.2414   -8.9442    0.0000 C   0  0  1
   19.0487  -10.0880    0.0000 C   0  0  2
   18.4619  -11.3590    0.0000 C   0  0  0
   20.4429   -9.9607    0.0000 O   0  0  0
   32.5029   10.6692    0.0000 C   0  0  0
  1  2  1
  2  3  2
  2  4  2
  2  5  1
 20 26  2
 15 47  2
 10  9  1
 16 48  1
 21 27  1  1
 48 49  1
 16 15  1
 50 49  1
 27 28  1
 49 51  2
 50 60  1  1
  6 25  1
 50 52  1
 60 68  1
 28 29  1
 52 53  1
 16 17  1  6
 53 54  2
 23 30  2
 55 53  1  6
 10 11  1
 55 56  1
 24 31  1  1
 55 57  1
 17 18  1
 57 58  1
 31 32  1
 57 59  1  1
  7  8  1
 32 33  1
 56 61  1
 11 12  1
 62 61  1
  6 34  2
 61 63  2
 19 20  1
 46 64  1
  7 35  1  1
 68 65  1
 62 66  1  1
 35 36  1
 62 67  1
 21 20  1
 36 37  1
 66 69  1
 13 12  1
 69 70  1
 36 38  1
 67 71  1
 21 22  1
 71 72  1
  9 39  2
 71 73  2
  8  9  1
 72 74  1
 10 40  1  6
 74 75  1
 22 23  1
 76 75  1
 40 41  1
 76 77  1
 13 14  1
 77 78  1
 41 42  1
 18 79  1
 24 23  1
 79 80  1
 41 43  1
 80 81  2
  7  6  1
 82 80  1  1
 82 19  1
 12 44  2
 82 83  1
 24 25  1
 83 84  1  1
 13 45  1  1
 83 85  1
 14 15  1
 45 46  1
 76 86  1
M  END
> <molLogP>
-10.253468

> <molLogS>
-3.499731

> <drugLikeness>
-1.136459

$$$$
5,7,3,4-Tetrahydroxy-2'-(3,3-dimethylallyl) isoflavone - AVA 3CLPro
  MOLSOFT 04262021142D

 26 28  0  0  0  0  0  0  0  0999 V2000
    4.3505   -5.8340    0.0000 C   0  0  0
    5.0505   -7.0465    0.0000 C   0  0  0
    6.4505   -7.0465    0.0000 C   0  0  0
    7.1505   -5.8340    0.0000 C   0  0  0
    8.5505   -5.8340    0.0000 C   0  0  0
    9.2505   -4.6216    0.0000 C   0  0  0
   10.6505   -4.6216    0.0000 C   0  0  0
   11.3505   -5.8340    0.0000 C   0  0  0
   10.6505   -7.0465    0.0000 C   0  0  0
    9.2505   -7.0465    0.0000 C   0  0  0
    8.5505   -8.2589    0.0000 O   0  0  0
   11.3505   -8.2589    0.0000 O   0  0  0
    8.5505   -3.4092    0.0000 C   0  0  0
    7.1505   -3.4092    0.0000 C   0  0  0
    6.4505   -2.1967    0.0000 O   0  0  0
    7.1505   -0.9843    0.0000 C   0  0  0
    6.4505    0.2281    0.0000 C   0  0  0
    7.1505    1.4406    0.0000 C   0  0  0
    8.5505    1.4406    0.0000 C   0  0  0
    9.2505    0.2281    0.0000 C   0  0  0
    8.5505   -0.9843    0.0000 C   0  0  0
    9.2505   -2.1967    0.0000 C   0  0  0
   10.6505   -2.1967    0.0000 O   0  0  0
   10.6505    0.2281    0.0000 O   0  0  0
    6.4505    2.6530    0.0000 O   0  0  0
    4.3505   -8.2589    0.0000 C   0  0  0
  1  2  1
  3  4  1
  4  5  1
  5  6  2
  7  8  2
  8  9  1
 10  5  1
 10 11  1
  9 10  2
  9 12  1
  6  7  1
  6 13  1
 13 14  2
 14 15  1
 15 16  1
 16 17  2
 17 18  1
 19 20  1
 21 16  1
 22 13  1
 21 22  1
 22 23  2
 20 21  2
 20 24  1
 18 19  2
 18 25  1
  2  3  2
  2 26  1
M  END
> <molLogP>
4.067088

> <molLogS>
-5.150731

> <drugLikeness>
0.650501

$$$$
Myricitrin - AVA 3CLPro
  MOLSOFT 04262021142D

 33 36  0  0  1  0  0  0  0  0999 V2000
    0.0000    0.0000    0.0000 C   0  0  0
    0.7000    1.2124    0.0000 C   0  0  0
    0.7000   -1.2124    0.0000 C   0  0  0
    2.1000   -1.2124    0.0000 C   0  0  0
   -2.1000   -1.2124    0.0000 C   0  0  2
    2.1000    1.2124    0.0000 O   0  0  0
    2.8000   -0.0000    0.0000 C   0  0  0
   -3.5000   -1.2124    0.0000 C   0  0  2
   -1.4000    0.0000    0.0000 O   0  0  0
   -4.2000   -2.4249    0.0000 C   0  0  2
   -0.0000    2.4249    0.0000 C   0  0  0
   -1.4000   -2.4249    0.0000 O   0  0  0
    2.8000   -2.4249    0.0000 C   0  0  0
   -3.5000   -3.6373    0.0000 C   0  0  1
   -1.4000    4.8497    0.0000 C   0  0  0
   -2.1000   -3.6373    0.0000 C   0  0  1
   -2.1000    3.6373    0.0000 C   0  0  0
    0.0000    4.8497    0.0000 C   0  0  0
   -1.4000    2.4249    0.0000 C   0  0  0
    0.7000    3.6373    0.0000 C   0  0  0
    4.2000   -0.0000    0.0000 C   0  0  0
    4.2000   -2.4249    0.0000 C   0  0  0
   -0.0000   -2.4249    0.0000 O   0  0  0
    4.9000   -1.2124    0.0000 C   0  0  0
   -4.2000   -0.0000    0.0000 O   0  0  0
   -5.6000   -2.4249    0.0000 O   0  0  0
    2.1000   -3.6373    0.0000 O   0  0  0
   -4.2000   -4.8497    0.0000 O   0  0  0
   -2.1000    6.0622    0.0000 O   0  0  0
   -3.5000    3.6373    0.0000 O   0  0  0
    0.7000    6.0622    0.0000 O   0  0  0
    6.3000   -1.2124    0.0000 O   0  0  0
   -1.4000   -4.8497    0.0000 C   0  0  0
  2  1  2
  3  1  1
  4  3  1
  5  9  1  6
  6  2  1
  7  4  1
  8  5  1
  9  1  1
 10  8  1
 11  2  1
  5 12  1
 13  4  2
 14 16  1
 15 18  2
 16 12  1
 17 19  2
 18 20  1
 19 11  1
 20 11  2
 21  7  2
 22 13  1
 23  3  2
 24 21  1
  8 25  1  6
 10 26  1  6
 27 13  1
 14 28  1  1
 29 15  1
 30 17  1
 31 18  1
 32 24  1
 16 33  1  6
  6  7  1
 15 17  1
 10 14  1
 24 22  2
M  END
> <molLogP>
0.047716

> <molLogS>
-3.422426

> <drugLikeness>
0.666521

$$$$
Methyl rosmarinate - AVA 3CLPro
  MOLSOFT 04262021142D

 27 28  0  0  1  0  0  0  0  0999 V2000
    0.0000    0.0000    0.0000 C   0  0  0
    0.7000    1.2124    0.0000 C   0  0  0
    2.1000    1.2124    0.0000 C   0  0  0
    2.8000   -0.0000    0.0000 C   0  0  0
    2.1000   -1.2124    0.0000 C   0  0  0
    0.7000   -1.2124    0.0000 C   0  0  0
   -1.4000    0.0000    0.0000 O   0  0  0
    4.2000   -0.0000    0.0000 C   0  0  0
    4.9000    1.2124    0.0000 C   0  0  0
    6.3000    1.2124    0.0000 C   0  0  0
    7.0000    2.4249    0.0000 O   0  0  0
    7.0000    0.0000    0.0000 O   0  0  0
    8.4000    2.4249    0.0000 C   0  0  2
    9.1000    1.2124    0.0000 C   0  0  0
    9.1000    3.6373    0.0000 C   0  0  0
    8.4000    4.8497    0.0000 O   0  0  0
   10.5000    3.6373    0.0000 O   0  0  0
   10.5000    1.2124    0.0000 C   0  0  0
   11.2000    2.4249    0.0000 C   0  0  0
   12.6000    2.4249    0.0000 C   0  0  0
   13.3000    1.2124    0.0000 C   0  0  0
   12.6000    0.0000    0.0000 C   0  0  0
   11.2000    0.0000    0.0000 C   0  0  0
   14.7000    1.2124    0.0000 O   0  0  0
   -0.0000   -2.4249    0.0000 O   0  0  0
   13.3000   -1.2124    0.0000 O   0  0  0
   11.2000    4.8497    0.0000 C   0  0  0
  1  2  2
 13 14  1  1
  1  7  1
 13 15  1
  3  4  2
 15 16  2
  4  8  1
 15 17  1
 14 18  1
  8  9  2
 18 19  2
  4  5  1
 19 20  1
  9 10  1
 20 21  2
  2  3  1
 21 22  1
 10 11  1
 22 23  2
 23 18  1
  5  6  2
 21 24  1
 10 12  2
  6 25  1
  6  1  1
 22 26  1
 13 11  1
 17 27  1
M  END
> <molLogP>
2.793748

> <molLogS>
-3.683907

> <drugLikeness>
0.300851

$$$$
Calceolarioside B - AVA 3CLPro
  MOLSOFT 04262021142D

 34 36  0  0  1  0  0  0  0  0999 V2000
    0.0000    0.0000    0.0000 C   0  0  0
    0.7000    1.2124    0.0000 C   0  0  0
    2.1000    1.2124    0.0000 C   0  0  0
    2.8000   -0.0000    0.0000 C   0  0  0
    2.1000   -1.2124    0.0000 C   0  0  0
    0.7000   -1.2124    0.0000 C   0  0  0
   -1.4000    0.0000    0.0000 O   0  0  0
   -0.0000    2.4249    0.0000 O   0  0  0
    2.8000   -2.4249    0.0000 C   0  0  0
    4.2000   -2.4249    0.0000 C   0  0  0
    4.9000   -3.6373    0.0000 C   0  0  0
    6.3000   -3.6373    0.0000 O   0  0  0
    4.2000   -4.8497    0.0000 O   0  0  0
    7.0000   -4.8497    0.0000 C   0  0  0
    8.4000   -4.8497    0.0000 C   0  0  2
    9.1000   -3.6373    0.0000 C   0  0  2
   10.5000   -3.6373    0.0000 C   0  0  1
   11.2000   -4.8497    0.0000 C   0  0  2
   10.5000   -6.0622    0.0000 C   0  0  1
    9.1000   -6.0622    0.0000 O   0  0  0
    8.4000   -2.4249    0.0000 O   0  0  0
   11.2000   -7.2746    0.0000 O   0  0  0
   12.6000   -4.8497    0.0000 O   0  0  0
   11.2000   -2.4249    0.0000 O   0  0  0
   12.6000   -7.2746    0.0000 C   0  0  0
   13.3000   -8.4870    0.0000 C   0  0  0
   14.7000   -8.4870    0.0000 C   0  0  0
   15.4000   -7.2746    0.0000 C   0  0  0
   16.8000   -7.2746    0.0000 C   0  0  0
   17.5000   -8.4870    0.0000 C   0  0  0
   16.8000   -9.6995    0.0000 C   0  0  0
   15.4000   -9.6995    0.0000 C   0  0  0
   17.5000  -10.9119    0.0000 O   0  0  0
   18.9000   -8.4870    0.0000 O   0  0  0
  5  9  1
  4  5  1
 15 20  1
 16 17  1
 17 18  1
 18 19  1
 19 20  1
  9 10  2
 16 21  1  1
  2  3  1
 19 22  1  6
 10 11  1
 18 23  1  1
  5  6  2
 17 24  1  6
  6  1  1
 22 25  1
 11 12  1
 25 26  1
 11 13  2
 26 27  1
  1  2  2
 27 28  2
 12 14  1
 28 29  1
  1  7  1
 29 30  2
 15 14  1  6
 30 31  1
 15 16  1
 31 32  2
 32 27  1
  3  4  2
 31 33  1
  2  8  1
 30 34  1
M  END
> <molLogP>
1.026454

> <molLogS>
-3.624104

> <drugLikeness>
0.280033

$$$$
Licoleafol - AVA 3CLPro
  MOLSOFT 04262021142D

 27 29  0  0  0  0  0  0  0  0999 V2000
    4.7268   -7.4592    0.0000 C   0  0  0
    5.4268   -8.6717    0.0000 C   0  0  0
    6.8268   -8.6717    0.0000 C   0  0  0
    7.5268   -7.4592    0.0000 C   0  0  0
    8.9268   -7.4592    0.0000 C   0  0  0
    9.6268   -6.2468    0.0000 C   0  0  0
   11.0268   -6.2468    0.0000 C   0  0  0
   11.7268   -7.4592    0.0000 C   0  0  0
   11.0268   -8.6717    0.0000 C   0  0  0
    9.6268   -8.6717    0.0000 C   0  0  0
    8.9268   -9.8841    0.0000 O   0  0  0
   13.1268   -7.4592    0.0000 O   0  0  0
   11.7268   -5.0344    0.0000 C   0  0  0
   13.1268   -5.0344    0.0000 O   0  0  0
   11.0268   -3.8219    0.0000 C   0  0  0
    9.6268   -3.8219    0.0000 C   0  0  3
    8.9268   -5.0344    0.0000 O   0  0  0
    8.9268   -2.6095    0.0000 C   0  0  0
    7.5268   -2.6095    0.0000 C   0  0  0
    6.8268   -1.3970    0.0000 C   0  0  0
    7.5268   -0.1846    0.0000 C   0  0  0
    8.9268   -0.1846    0.0000 C   0  0  0
    9.6268   -1.3970    0.0000 C   0  0  0
    6.8268    1.0278    0.0000 O   0  0  0
    5.4268   -1.3970    0.0000 O   0  0  0
    4.7268   -9.8841    0.0000 C   0  0  0
    3.3268   -9.8841    0.0000 O   0  0  0
  1  2  1
  3  4  1
  4  5  1
  5  6  2
  6  7  1
 10  5  1
  9 10  2
 10 11  1
  8  9  1
  8 12  1
  7  8  2
  7 13  1
 13 14  2
 13 15  1
 16 15  1
 17  6  1
 16 17  1
 16 18  1
 18 19  2
 19 20  1
 23 18  1
 22 23  2
 21 22  1
 21 24  1
 20 21  2
 20 25  1
  2  3  2  3
  2 26  1
 26 27  1
M  END
> <molLogP>
2.666411

> <molLogS>
-3.671789

> <drugLikeness>
1.41224

$$$$
Prulifloxacin - AVA 3CLpro
  MOLSOFT 04262021142D

 32 36  0  0  0  0  0  0  0  0999 V2000
    0.0000   -0.0000    0.0000 C   0  0  0
    0.9899    0.9899    0.0000 N   0  0  0
   -1.3523    0.3623    0.0000 C   0  0  0
    0.9899   -0.9899    0.0000 S   0  0  0
    0.6276    2.3422    0.0000 C   0  0  0
   -0.7247    2.7046    0.0000 C   0  0  0
   -1.7146    1.7146    0.0000 C   0  0  0
    1.9799    0.0000    0.0000 C   0  0  3
    4.8527    9.9966    0.0000 C   0  0  0
    4.9712   12.2587    0.0000 C   0  0  0
    1.6176    3.3322    0.0000 C   0  0  0
    5.7337   11.0846    0.0000 O   0  0  0
    1.2552    4.6845    0.0000 C   0  0  0
    3.5456   10.4983    0.0000 C   0  0  0
    3.6189   11.8964    0.0000 O   0  0  0
   -1.0870    4.0569    0.0000 C   0  0  0
    2.2452    5.6744    0.0000 N   0  0  0
   -2.3422   -0.6276    0.0000 C   0  0  0
   -0.0971    5.0468    0.0000 C   0  0  0
    4.2251    7.6543    0.0000 N   0  0  0
    5.2150    8.6443    0.0000 C   0  0  0
   -3.0669    2.0770    0.0000 O   0  0  0
    5.4729   13.5657    0.0000 O   0  0  0
    3.5975    5.3121    0.0000 C   0  0  0
    1.8828    7.0267    0.0000 C   0  0  0
   -3.6945   -0.2653    0.0000 O   0  0  0
    2.8728    8.0167    0.0000 C   0  0  0
    4.5874    6.3020    0.0000 C   0  0  0
   -0.4594    6.3991    0.0000 F   0  0  0
   -1.9799   -1.9799    0.0000 O   0  0  0
    3.3799    0.0000    0.0000 C   0  0  0
    2.3715    9.7358    0.0000 C   0  0  0
  2  1  1
  3  1  2
  4  1  1
  5  2  1
  6  7  1
  7  3  1
  8  4  1
  9 21  1
 10 12  1
 11  5  2
 12  9  1
 13 11  1
 14  9  2
 15 14  1
 16  6  2
 17 13  1
 18  3  1
 19 16  1
 20 27  1
 21 20  1
 22  7  2
 23 10  2
 24 17  1
 25 17  1
 26 18  2
 27 25  1
 28 24  1
 29 19  1
 30 18  1
  8 31  1
 32 14  1
  8  2  1
  5  6  1
 13 19  2
 20 28  1
 15 10  1
M  END
> <molLogP>
0.808027

> <molLogS>
-4.716989

> <drugLikeness>
1.537678

$$$$
Chloroquine
  MOLSOFT 04262021142D

 22 23  0  0  0  0  0  0  0  0999 V2000
    0.0000    4.8497    0.0000 Cl  0  0  0
    9.1000    3.6373    0.0000 N   0  0  0
    4.2000   -0.0000    0.0000 N   0  0  0
    0.0000    0.0000    0.0000 N   0  0  0
    6.3000    1.2124    0.0000 C   0  0  0
    7.0000    2.4249    0.0000 C   0  0  0
    4.9000    1.2124    0.0000 C   0  0  3
    8.4000    2.4249    0.0000 C   0  0  0
    4.2000    2.4249    0.0000 C   0  0  0
    8.4000    4.8497    0.0000 C   0  0  0
   10.5000    3.6373    0.0000 C   0  0  0
    2.8000   -0.0000    0.0000 C   0  0  0
    2.1000    1.2124    0.0000 C   0  0  0
    7.0000    4.8497    0.0000 C   0  0  0
   11.2000    4.8497    0.0000 C   0  0  0
    2.1000   -1.2124    0.0000 C   0  0  0
    0.7000    1.2124    0.0000 C   0  0  0
    2.8000    2.4249    0.0000 C   0  0  0
    0.7000   -1.2124    0.0000 C   0  0  0
    0.0000    2.4249    0.0000 C   0  0  0
    2.1000    3.6373    0.0000 C   0  0  0
    0.7000    3.6373    0.0000 C   0  0  0
  1 22  1
  2  8  1
  2 10  1
  2 11  1
  7  3  1
  3 12  1
  4 17  2
  4 19  1
  5  6  1
  7  5  1
  6  8  1
  7  9  1
 10 14  1
 11 15  1
 12 13  2
 12 16  1
 13 17  1
 13 18  1
 16 19  2
 17 20  1
 18 21  2
 20 22  2
 21 22  1
M  END
> <molLogP>
4.987638

> <molLogS>
-4.040309

> <drugLikeness>
0.941588

$$$$
Hydroxychloroquine
  MOLSOFT 04262021142D

 23 24  0  0  0  0  0  0  0  0999 V2000
    0.0000    4.8497    0.0000 Cl  0  0  0
   12.6000    4.8497    0.0000 O   0  0  0
    9.1000    3.6373    0.0000 N   0  0  0
    4.2000   -0.0000    0.0000 N   0  0  0
    0.0000    0.0000    0.0000 N   0  0  0
    6.3000    1.2124    0.0000 C   0  0  0
    7.0000    2.4249    0.0000 C   0  0  0
    4.9000    1.2124    0.0000 C   0  0  3
    8.4000    2.4249    0.0000 C   0  0  0
   10.5000    3.6373    0.0000 C   0  0  0
    4.2000    2.4249    0.0000 C   0  0  0
    8.4000    4.8497    0.0000 C   0  0  0
    2.8000   -0.0000    0.0000 C   0  0  0
   11.2000    4.8497    0.0000 C   0  0  0
    7.0000    4.8497    0.0000 C   0  0  0
    2.1000    1.2124    0.0000 C   0  0  0
    2.1000   -1.2124    0.0000 C   0  0  0
    0.7000    1.2124    0.0000 C   0  0  0
    2.8000    2.4249    0.0000 C   0  0  0
    0.7000   -1.2124    0.0000 C   0  0  0
    0.0000    2.4249    0.0000 C   0  0  0
    2.1000    3.6373    0.0000 C   0  0  0
    0.7000    3.6373    0.0000 C   0  0  0
  1 23  1
  2 14  1
  3  9  1
  3 10  1
  3 12  1
  8  4  1
  4 13  1
  5 18  2
  5 20  1
  6  7  1
  8  6  1
  7  9  1
  8 11  1
 10 14  1
 12 15  1
 13 16  2
 13 17  1
 16 18  1
 16 19  1
 17 20  2
 18 21  1
 19 22  2
 21 23  2
 22 23  1
M  END
> <molLogP>
3.827702

> <molLogS>
-3.62203

> <drugLikeness>
0.881715

$$$$
Azithromycin
  MOLSOFT 04262021142D

 52 54  0  0  1  0  0  0  0  0999 V2000
    0.0000   -0.0000    0.0000 N   0  0  0
    0.2911   -1.3694    0.0000 C   0  0  0
    0.2911    1.3694    0.0000 C   0  0  1
    1.1140   -2.5020    0.0000 C   0  0  1
    2.3264   -3.2020    0.0000 C   0  0  0
    4.0474   -2.7303    0.0000 C   0  0  2
    5.0502   -2.9157    0.0000 C   0  0  1
    6.0906   -1.9790    0.0000 C   0  0  2
    6.6601   -0.7000    0.0000 C   0  0  1
    6.6601    0.7000    0.0000 C   0  0  2
    5.5243    1.5675    0.0000 C   0  0  0
    5.0502    2.9157    0.0000 O   0  0  0
    3.7187    3.3484    0.0000 C   0  0  1
    2.1335    2.5291    0.0000 C   0  0  2
    1.5824    1.9818    0.0000 C   0  0  2
   -1.4000   -0.0000    0.0000 C   0  0  0
   -0.9879    1.9388    0.0000 C   0  0  0
    2.5191    0.9414    0.0000 O   0  0  0
    1.7476    1.1834    0.0000 O   0  0  0
    8.0295    0.9911    0.0000 C   0  0  0
    4.7046   -1.4942    0.0000 O   0  0  0
    0.1772   -3.5424    0.0000 C   0  0  0
    4.6186   -4.4208    0.0000 C   0  0  0
    1.2232    4.0640    0.0000 C   0  0  0
    3.8651    4.7407    0.0000 C   0  0  0
    8.0295   -0.9911    0.0000 O   0  0  0
    5.7502   -4.1282    0.0000 O   0  0  0
    4.3917    0.7446    0.0000 O   0  0  0
    2.7325    5.5636    0.0000 C   0  0  0
    8.9662    0.0493    0.0000 C   0  0  1
    7.8502   -2.9157    0.0000 C   0  0  1
    7.1502   -4.1282    0.0000 C   0  0  1
    7.8502   -5.3406    0.0000 O   0  0  0
    9.2502   -5.3406    0.0000 C   0  0  1
    9.9502   -4.1282    0.0000 C   0  0  0
    9.2502   -2.9157    0.0000 C   0  0  2
   10.3357   -0.2418    0.0000 C   0  0  0
    8.5336    1.3808    0.0000 O   0  0  0
    9.4704    2.4212    0.0000 C   0  0  2
   10.8398    2.1301    0.0000 C   0  0  1
   11.2724    0.7987    0.0000 C   0  0  1
    7.1502   -1.7033    0.0000 O   0  0  0
    9.0378    3.7527    0.0000 C   0  0  0
   12.1344   -0.3046    0.0000 C   0  0  0
    9.9502   -6.5531    0.0000 C   0  0  0
    9.9502   -1.7033    0.0000 N   0  0  0
   12.5086    1.4559    0.0000 O   0  0  0
   11.7766    3.1705    0.0000 O   0  0  0
   12.5574    2.8551    0.0000 C   0  0  0
   11.3502   -1.7033    0.0000 C   0  0  0
    9.2502   -0.4909    0.0000 C   0  0  0
    7.2232   -2.8019    0.0000 C   0  0  0
  1  2  1
  3  1  1
  4  2  1
  4  5  1
  6  5  1
  6  7  1
  7  8  1
  8  9  1
  9 10  1
 10 11  1
 11 12  1
 13 12  1
 13 14  1
 14 15  1
 15  3  1
  1 16  1
  3 17  1  6
 15 18  1  6
 14 19  1
 10 20  1  6
  6 21  1
  4 22  1  1
  6 23  1  6
 14 24  1  6
 13 25  1  1
  9 26  1  1
  7 27  1  1
 11 28  2
 25 29  1
 32 27  1  1
 30 26  1  6
 31 32  1
 32 33  1
 34 33  1
 34 35  1
 36 35  1
 31 36  1
 30 37  1
 30 38  1
 39 38  1
 39 40  1
 40 41  1
 41 37  1
 31 42  1  6
 39 43  1  1
 41 44  1  1
 34 45  1  1
 36 46  1  1
 41 47  1
 40 48  1  6
 47 49  1
 46 50  1
 46 51  1
  8 52  1  6
M  END
> <molLogP>
1.500678

> <molLogS>
0.949814

> <drugLikeness>
1.280506

$$$$
Clarithromycin
  MOLSOFT 04262021142D

 52 54  0  0  1  0  0  0  0  0999 V2000
    0.0000    0.0000    0.0000 C   0  0  2
   -0.5622   -3.4679    0.0000 C   0  0  2
   -1.8800   -5.6003    0.0000 C   0  0  0
   -5.2981   -5.9630    0.0000 C   0  0  1
   -0.6669   -4.8640    0.0000 C   0  0  2
    0.7000    1.2124    0.0000 C   0  0  1
   -2.1000   -1.2124    0.0000 C   0  0  1
   -1.0737   -2.1647    0.0000 C   0  0  1
   -6.7835   -4.4056    0.0000 C   0  0  2
   -2.5236   -6.8651    0.0000 O   0  0  0
   -5.6937   -5.3145    0.0000 C   0  0  1
   -6.0100   -3.2159    0.0000 C   0  0  0
   -1.4000    0.0000    0.0000 O   0  0  0
    3.9522   -5.2397    0.0000 C   0  0  2
    2.1000    1.2124    0.0000 C   0  0  2
   -3.4378   -0.7998    0.0000 C   0  0  1
    1.6950   -4.3538    0.0000 C   0  0  1
    3.0794   -4.1451    0.0000 C   0  0  0
    0.7000   -1.2124    0.0000 O   0  0  0
    1.1835   -5.6570    0.0000 O   0  0  0
   -3.9080   -7.0737    0.0000 C   0  0  2
    3.4408   -6.5429    0.0000 C   0  0  2
    0.8221   -3.2592    0.0000 O   0  0  0
    2.0564   -6.7516    0.0000 C   0  0  2
   -5.9789   -1.7971    0.0000 C   0  0  1
   -4.8222   -1.0084    0.0000 C   0  0  0
    2.8000   -0.0000    0.0000 C   0  0  0
    2.8000    2.4249    0.0000 N   0  0  0
   -2.9063   -4.6481    0.0000 O   0  0  0
    2.1000   -1.2124    0.0000 C   0  0  1
   -4.6722   -3.6285    0.0000 O   0  0  0
   -5.4027   -4.5669    0.0000 O   0  0  0
   -0.0000    2.4249    0.0000 O   0  0  0
   -4.5369   -4.5259    0.0000 O   0  0  0
    5.1469   -5.9697    0.0000 O   0  0  0
   -4.1378    0.4127    0.0000 O   0  0  0
    4.3137   -7.6375    0.0000 O   0  0  0
   -6.5071   -7.2685    0.0000 C   0  0  0
    0.6709   -5.2766    0.0000 C   0  0  0
    0.0830   -1.3760    0.0000 C   0  0  0
   -8.1679   -4.6143    0.0000 C   0  0  0
    4.8786   -4.1900    0.0000 C   0  0  0
   -2.5649    0.2948    0.0000 C   0  0  0
   -4.0126   -8.4698    0.0000 C   0  0  0
    1.5449   -8.0548    0.0000 C   0  0  0
   -7.0052   -0.8448    0.0000 C   0  0  0
    4.2000    2.4249    0.0000 C   0  0  0
    2.1000    3.6373    0.0000 C   0  0  0
    2.8000   -2.4249    0.0000 C   0  0  0
    6.3764   -5.3002    0.0000 C   0  0  0
   -5.5378    0.4127    0.0000 C   0  0  0
   -2.8559   -9.2585    0.0000 C   0  0  0
  2  8  1
  5  3  1
  4 11  1
  5  2  1
  6  1  1
  7 13  1  6
  8  7  1
  9 12  1
 10  3  1
 11  9  1
 25 12  1
  1 13  1  1
 14 18  1
 15  6  1
 16  7  1
 17 23  1  1
 17 18  1
  1 19  1
 17 20  1
 21 10  1
 22 24  1
  2 23  1  6
 24 20  1
 25 26  1
 16 26  1
 30 27  1
 15 28  1  1
 29  3  2
 30 19  1
 31 12  2
  4 32  1
  6 33  1  6
 11 34  1  1
 14 35  1
 16 36  1
 22 37  1  1
  4 38  1  1
  5 39  1  1
  8 40  1  1
  9 41  1  1
 14 42  1  6
 16 43  1  6
 21 44  1  6
 24 45  1  6
 25 46  1  6
 47 28  1
 48 28  1
 30 49  1  1
 50 35  1
 51 36  1
 52 44  1
 15 27  1
 21  4  1
 14 22  1
M  END
> <molLogP>
1.908788

> <molLogS>
-0.285713

> <drugLikeness>
1.377062

$$$$
Ramipril
  MOLSOFT 04262021142D

 32 34  0  0  1  0  0  0  0  0999 V2000
   -2.1000    1.2124    0.0000 O   0  0  0
    1.3271    3.5045    0.0000 O   0  0  0
   -0.9791    2.7552    0.0000 O   0  0  0
   -6.3000   -3.6373    0.0000 O   0  0  0
   -6.3000   -1.2124    0.0000 O   0  0  0
   -0.0000   -0.0000    0.0000 N   0  0  0
   -3.5000   -1.2124    0.0000 N   0  0  0
    2.1544   -0.7000    0.0000 C   0  0  2
    0.8229   -1.1326    0.0000 C   0  0  2
    2.1544    0.7000    0.0000 C   0  0  0
    2.9773   -1.8326    0.0000 C   0  0  0
    0.8229   -2.5326    0.0000 C   0  0  0
    0.8229    1.1326    0.0000 C   0  0  1
    2.1544   -2.9652    0.0000 C   0  0  0
   -1.4000   -0.0000    0.0000 C   0  0  0
    0.3903    2.4641    0.0000 C   0  0  0
   -2.1000   -1.2124    0.0000 C   0  0  2
   -1.4000   -2.4249    0.0000 C   0  0  0
   -4.2000   -2.4249    0.0000 C   0  0  1
   -3.5000   -3.6373    0.0000 C   0  0  0
   -5.6000   -2.4249    0.0000 C   0  0  0
   -2.1000   -3.6373    0.0000 C   0  0  0
   -1.4000   -4.8497    0.0000 C   0  0  0
   -2.1000   -6.0622    0.0000 C   0  0  0
    0.0000   -4.8497    0.0000 C   0  0  0
   -7.7000   -3.6373    0.0000 C   0  0  0
   -1.4000   -7.2746    0.0000 C   0  0  0
    0.7000   -6.0622    0.0000 C   0  0  0
   -8.4000   -4.8497    0.0000 C   0  0  0
    0.0000   -7.2746    0.0000 C   0  0  0
    3.0420   -0.4116    0.0000 H   0  0  0
   -0.0648   -1.4210    0.0000 H   0  0  0
  1 15  2
  2 16  1
  3 16  2
  4 21  1
  4 26  1
  5 21  2
  9  6  1
 13  6  1
  6 15  1
 17  7  1
 19  7  1
  8  9  1
  8 10  1
  8 11  1
  8 31  1  1
  9 12  1
  9 32  1  1
 13 10  1
 11 14  1
 12 14  1
 13 16  1  6
 17 15  1
 17 18  1  6
 19 20  1  1
 19 21  1
 20 22  1
 22 23  1
 23 24  2
 23 25  1
 24 27  1
 25 28  2
 26 29  1
 27 30  2
 28 30  1
M  END
> <molLogP>
2.300563

> <molLogS>
-3.962509

> <drugLikeness>
0.633274

$$$$
Moexipril
  MOLSOFT 04262021142D

 36 38  0  0  1  0  0  0  0  0999 V2000
   -2.1000   -1.2124    0.0000 O   0  0  0
   -1.4000   -2.4249    0.0000 O   0  0  0
    6.3000    1.2124    0.0000 O   0  0  0
    4.9000    3.6373    0.0000 O   0  0  0
    0.7000   -3.6373    0.0000 O   0  0  0
   -6.3000    3.6373    0.0000 O   0  0  0
   -6.3000    1.2124    0.0000 O   0  0  0
    0.0000    0.0000    0.0000 N   0  0  0
   -3.5000    1.2124    0.0000 N   0  0  0
    0.7000   -1.2124    0.0000 C   0  0  1
    2.1000   -1.2124    0.0000 C   0  0  0
    0.7000    1.2124    0.0000 C   0  0  0
    2.8000   -0.0000    0.0000 C   0  0  0
    2.1000    1.2124    0.0000 C   0  0  0
   -2.1000    1.2124    0.0000 C   0  0  2
   -1.4000    0.0000    0.0000 C   0  0  0
   -4.2000    2.4249    0.0000 C   0  0  1
    4.2000    0.0000    0.0000 C   0  0  0
   -0.0000   -2.4249    0.0000 C   0  0  0
    2.8000    2.4249    0.0000 C   0  0  0
   -3.5000    3.6373    0.0000 C   0  0  0
   -1.4000    2.4249    0.0000 C   0  0  0
    4.9000    1.2124    0.0000 C   0  0  0
    4.2000    2.4249    0.0000 C   0  0  0
   -4.2000    4.8497    0.0000 C   0  0  0
   -5.6000    2.4249    0.0000 C   0  0  0
   -3.5000    6.0622    0.0000 C   0  0  0
   -2.1000    6.0622    0.0000 C   0  0  0
   -4.2000    7.2746    0.0000 C   0  0  0
    7.0000    2.4249    0.0000 C   0  0  0
    4.2000    4.8497    0.0000 C   0  0  0
   -7.7000    3.6373    0.0000 C   0  0  0
   -1.4000    7.2746    0.0000 C   0  0  0
   -3.5000    8.4870    0.0000 C   0  0  0
   -2.1000    8.4870    0.0000 C   0  0  0
   -8.4000    4.8497    0.0000 C   0  0  0
  1 16  2
  2 19  1
  3 23  1
  3 30  1
  4 24  1
  4 31  1
  5 19  2
  6 26  1
  6 32  1
  7 26  2
 10  8  1
  8 12  1
  8 16  1
 15  9  1
 17  9  1
 10 11  1
 10 19  1  1
 11 13  1
 12 14  1
 13 14  1
 13 18  2
 14 20  2
 15 16  1
 15 22  1  1
 17 21  1  6
 17 26  1
 18 23  1
 20 24  1
 21 25  1
 23 24  2
 25 27  1
 27 28  2
 27 29  1
 28 33  1
 29 34  2
 32 36  1
 33 35  2
 34 35  1
M  END
> <molLogP>
2.431114

> <molLogS>
-5.210414

> <drugLikeness>
1.138693

$$$$
Mitoxantrone
  MOLSOFT 04262021142D

 32 34  0  0  0  0  0  0  0  0999 V2000
   -0.0000    2.4249    0.0000 O   0  0  0
    2.8000   -2.4249    0.0000 O   0  0  0
    2.1000    3.6373    0.0000 O   0  0  0
    4.9000   -1.2124    0.0000 O   0  0  0
   -8.4000    4.8497    0.0000 O   0  0  0
    7.0000   -7.2746    0.0000 O   0  0  0
   -2.1000    1.2124    0.0000 N   0  0  0
    0.7000   -3.6373    0.0000 N   0  0  0
   -5.6000    2.4249    0.0000 N   0  0  0
    4.2000   -4.8497    0.0000 N   0  0  0
    0.0000    0.0000    0.0000 C   0  0  0
    0.7000   -1.2124    0.0000 C   0  0  0
   -1.4000   -0.0000    0.0000 C   0  0  0
   -0.0000   -2.4249    0.0000 C   0  0  0
    2.1000    1.2124    0.0000 C   0  0  0
    2.8000   -0.0000    0.0000 C   0  0  0
    0.7000    1.2124    0.0000 C   0  0  0
    2.1000   -1.2124    0.0000 C   0  0  0
   -2.1000   -1.2124    0.0000 C   0  0  0
   -1.4000   -2.4249    0.0000 C   0  0  0
   -3.5000    1.2124    0.0000 C   0  0  0
    2.1000   -3.6373    0.0000 C   0  0  0
    2.8000    2.4249    0.0000 C   0  0  0
    4.2000    0.0000    0.0000 C   0  0  0
   -4.2000    2.4249    0.0000 C   0  0  0
    2.8000   -4.8497    0.0000 C   0  0  0
    4.2000    2.4249    0.0000 C   0  0  0
    4.9000    1.2124    0.0000 C   0  0  0
   -6.3000    3.6373    0.0000 C   0  0  0
    4.9000   -6.0622    0.0000 C   0  0  0
   -7.7000    3.6373    0.0000 C   0  0  0
    6.3000   -6.0622    0.0000 C   0  0  0
  1 17  2
  2 18  2
  3 23  1
  4 24  1
  5 31  1
  6 32  1
  7 13  1
  7 21  1
  8 14  1
  8 22  1
  9 25  1
  9 29  1
 10 26  1
 10 30  1
 11 12  1
 11 13  2
 11 17  1
 12 14  2
 12 18  1
 13 19  1
 14 20  1
 15 16  1
 15 17  1
 15 23  2
 16 18  1
 16 24  2
 19 20  2
 21 25  1
 22 26  1
 23 27  1
 24 28  1
 27 28  2
 29 31  1
 30 32  1
M  END
> <molLogP>
-0.514941

> <molLogS>
-3.556755

> <drugLikeness>
0.528131

$$$$
Daunorubicin
  MOLSOFT 04262021142D

 38 42  0  0  1  0  0  0  0  0999 V2000
   -0.0000   -2.4249    0.0000 O   0  0  0
    0.0000    0.0000    0.0000 O   0  0  0
    3.8725   -5.7496    0.0000 O   0  0  0
    2.8000    2.4249    0.0000 O   0  0  0
   -2.1000   -3.6373    0.0000 O   0  0  0
    0.7000   -8.4870    0.0000 O   0  0  0
    5.1880   -4.4287    0.0000 O   0  0  0
   -4.2000   -4.8497    0.0000 O   0  0  0
   -1.4000   -9.6995    0.0000 O   0  0  0
   -6.3000   -6.0622    0.0000 O   0  0  0
    4.2000   -0.0000    0.0000 N   0  0  0
    0.7000   -3.6373    0.0000 C   0  0  1
    2.8000   -4.8497    0.0000 C   0  0  2
    2.1000   -3.6373    0.0000 C   0  0  0
    2.1000   -6.0622    0.0000 C   0  0  0
   -0.0000   -4.8497    0.0000 C   0  0  0
    0.7000   -6.0622    0.0000 C   0  0  0
    0.7000   -1.2124    0.0000 C   0  0  2
    2.1000   -1.2124    0.0000 C   0  0  0
    2.8000   -0.0000    0.0000 C   0  0  1
    2.1000    1.2124    0.0000 C   0  0  1
    0.7000    1.2124    0.0000 C   0  0  2
   -1.4000   -4.8497    0.0000 C   0  0  0
    3.8725   -3.9498    0.0000 C   0  0  0
   -0.0000   -7.2746    0.0000 C   0  0  0
   -2.1000   -6.0622    0.0000 C   0  0  0
   -1.4000   -7.2746    0.0000 C   0  0  0
   -0.0000    2.4249    0.0000 C   0  0  0
    3.6294   -2.5711    0.0000 C   0  0  0
   -3.5000   -6.0622    0.0000 C   0  0  0
   -2.1000   -8.4870    0.0000 C   0  0  0
   -4.2000   -7.2746    0.0000 C   0  0  0
   -3.5000   -8.4870    0.0000 C   0  0  0
   -5.6000   -7.2746    0.0000 C   0  0  0
   -4.2000   -9.6995    0.0000 C   0  0  0
   -6.3000   -8.4871    0.0000 C   0  0  0
   -5.6000   -9.6995    0.0000 C   0  0  0
   -7.7000   -6.0622    0.0000 C   0  0  0
 12  1  1  1
 18  1  1  6
 18  2  1
 22  2  1
 13  3  1  1
 21  4  1  1
  5 23  1
  6 25  1
  7 24  2
  8 30  2
  9 31  2
 10 34  1
 10 38  1
 20 11  1  1
 12 14  1
 12 16  1
 13 14  1
 13 15  1
 13 24  1
 15 17  1
 16 17  2
 16 23  1
 17 25  1
 18 19  1
 20 19  1
 20 21  1
 21 22  1
 22 28  1  1
 23 26  2
 24 29  1
 25 27  2
 26 27  1
 26 30  1
 27 31  1
 30 32  1
 31 33  1
 32 33  2
 32 34  1
 33 35  1
 34 36  2
 35 37  2
 36 37  1
M  END
> <molLogP>
0.200473

> <molLogS>
-5.392371

> <drugLikeness>
0.886579

$$$$
Metamizole
  MOLSOFT 04262021142D

 22 22  0  0  0  0  0  0  0  0999 V2000
    7.0000    1.8494    0.0000 C   0  0  0
    7.7000    0.6370    0.0000 N   0  0  0
    7.0000   -0.5754    0.0000 C   0  0  0
    5.6000   -0.5754    0.0000 S   0  0  0
    5.6000   -1.9754    0.0000 O   0  0  0
    5.6000    0.8246    0.0000 O   0  0  0
    4.2000   -0.5754    0.0000 O   0  0  0
    9.1000    0.6370    0.0000 C   0  0  0
    9.9229    1.7696    0.0000 C   0  0  0
    9.4903    3.1011    0.0000 C   0  0  0
   11.2544    1.3370    0.0000 N   0  0  0
   12.3870    2.1599    0.0000 C   0  0  0
   11.2544   -0.0630    0.0000 N   0  0  0
    9.9229   -0.4956    0.0000 C   0  0  0
    9.4903   -1.8271    0.0000 O   0  0  0
   12.3870   -0.8859    0.0000 C   0  0  0
   13.6660   -0.3165    0.0000 C   0  0  0
   14.7986   -1.1394    0.0000 C   0  0  0
   14.6523   -2.5317    0.0000 C   0  0  0
   13.3733   -3.1011    0.0000 C   0  0  0
   12.2407   -2.2782    0.0000 C   0  0  0
    1.8667    0.0000    0.0000 Na  0  0  0
  1  2  1
  2  3  1
  3  4  1
  4  5  1
  4  6  2
  4  7  2
  2  8  1
  8 14  1
  8  9  2
  9 10  1
  9 11  1
 11 12  1
 11 13  1
 13 14  1
 14 15  2
 13 16  1
 16 21  1
 16 17  2
 17 18  1
 18 19  2
 19 20  1
 20 21  2
M  END
> <molLogP>
-0.818761

> <molLogS>
-1.367746

> <drugLikeness>
0.866221

$$$$
Bepotastine
  MOLSOFT 04262021142D

 27 29  0  0  1  0  0  0  0  0999 V2000
    0.0000    0.0000    0.0000 C   0  0  0
    0.7000    1.2124    0.0000 C   0  0  0
    2.1000    1.2124    0.0000 C   0  0  0
    2.8000   -0.0000    0.0000 C   0  0  0
    2.1000   -1.2124    0.0000 C   0  0  0
    0.7000   -1.2124    0.0000 C   0  0  0
    2.8000    2.4249    0.0000 Cl  0  0  0
   -0.0000   -2.4249    0.0000 C   0  0  2
    0.7000   -3.6373    0.0000 O   0  0  0
   -1.4000   -2.4249    0.0000 C   0  0  0
   -2.1000   -3.6373    0.0000 N   0  0  0
   -3.5000   -3.6373    0.0000 C   0  0  0
   -4.2000   -2.4249    0.0000 C   0  0  0
   -3.5000   -1.2124    0.0000 C   0  0  0
   -2.1000   -1.2124    0.0000 C   0  0  0
   -0.0000   -4.8497    0.0000 C   0  0  0
    0.7000   -6.0622    0.0000 C   0  0  0
    0.0000   -7.2746    0.0000 C   0  0  0
   -1.4000   -7.2746    0.0000 N   0  0  0
   -2.1000   -6.0622    0.0000 C   0  0  0
   -1.4000   -4.8497    0.0000 C   0  0  0
   -2.1000   -8.4870    0.0000 C   0  0  0
   -1.4000   -9.6995    0.0000 C   0  0  0
   -2.1000  -10.9119    0.0000 C   0  0  0
   -1.4000  -12.1244    0.0000 C   0  0  0
    0.0000  -12.1244    0.0000 O   0  0  0
   -2.1000  -13.3368    0.0000 O   0  0  0
  1  2  1
  1  6  2
  2  3  2
  3  4  1
  4  5  2
  5  6  1
  3  7  1
  8  6  1  6
  8  9  1
  8 10  1
 10 11  1
 10 15  2
 11 12  2
 12 13  1
 13 14  2
 14 15  1
  9 16  1
 16 17  1
 21 16  1
 17 18  1
 18 19  1
 19 20  1
 20 21  1
 19 22  1
 22 23  1
 23 24  1
 24 25  1
 25 26  1
 25 27  2
M  END
> <molLogP>
3.460072

> <molLogS>
-3.350019

> <drugLikeness>
1.939655

$$$$
Atovaquone
  MOLSOFT 04262021142D

 26 29  0  0  0  0  0  0  0  0999 V2000
    0.0000    0.0000    0.0000 C   0  0  0
    0.7000    1.2124    0.0000 C   0  0  0
    2.1000    1.2124    0.0000 C   0  0  0
    2.8000   -0.0000    0.0000 C   0  0  0
    2.1000   -1.2124    0.0000 C   0  0  0
    0.7000   -1.2124    0.0000 C   0  0  0
    0.0000   -2.4249    0.0000 C   0  0  0
    0.7000   -3.6373    0.0000 C   0  0  0
    2.1000   -3.6373    0.0000 C   0  0  0
    2.8000   -2.4249    0.0000 C   0  0  0
    0.0000   -4.8497    0.0000 C   0  0  1
    0.7000   -6.0622    0.0000 C   0  0  0
    0.0000   -7.2746    0.0000 C   0  0  0
   -1.4000   -7.2746    0.0000 C   0  0  1
   -2.1000   -6.0622    0.0000 C   0  0  0
   -1.4000   -4.8497    0.0000 C   0  0  0
   -2.1000   -8.4870    0.0000 C   0  0  0
   -1.4000   -9.6995    0.0000 C   0  0  0
   -2.1000  -10.9119    0.0000 C   0  0  0
   -3.5000  -10.9119    0.0000 C   0  0  0
   -4.2000   -9.6995    0.0000 C   0  0  0
   -3.5000   -8.4870    0.0000 C   0  0  0
   -4.2000  -12.1244    0.0000 Cl  0  0  0
    2.8000   -4.8497    0.0000 O   0  0  0
    4.2000   -2.4249    0.0000 O   0  0  0
   -1.4000   -2.4249    0.0000 O   0  0  0
  1  2  2
  1  6  1
  2  3  1
  3  4  2
  4  5  1
 10  5  1
  5  6  2
  6  7  1
  7  8  1
  8  9  2
  9 10  1
 11  8  1  1
 11 12  1
 11 16  1
 12 13  1
 14 13  1
 14 15  1
 15 16  1
 14 17  1  6
 17 18  2
 17 22  1
 18 19  1
 19 20  2
 20 21  1
 21 22  2
 20 23  1
  9 24  1
 10 25  2
  7 26  2
M  END
> <molLogP>
5.293098

> <molLogS>
-8.27383

> <drugLikeness>
1.336847

$$$$
Rosuvastatin
  MOLSOFT 04262021142D

 33 34  0  0  1  0  0  0  0  0999 V2000
    0.0000    0.0000    0.0000 N   0  0  0
    0.7000   -1.2124    0.0000 C   0  0  0
    0.7000    1.2124    0.0000 C   0  0  0
    2.1000    1.2124    0.0000 C   0  0  0
    2.8000   -0.0000    0.0000 C   0  0  0
    2.1000   -1.2124    0.0000 N   0  0  0
   -0.0000   -2.4249    0.0000 N   0  0  0
    4.2000   -0.0000    0.0000 C   0  0  0
    4.9000   -1.2124    0.0000 C   0  0  0
    4.9000    1.2124    0.0000 C   0  0  0
   -0.0000    2.4249    0.0000 C   0  0  0
    0.7000    3.6373    0.0000 C   0  0  0
    0.0000    4.8497    0.0000 C   0  0  0
   -1.4000    4.8497    0.0000 C   0  0  0
   -2.1000    3.6373    0.0000 C   0  0  0
   -1.4000    2.4249    0.0000 C   0  0  0
   -2.1000    6.0622    0.0000 F   0  0  0
    2.8000    2.4249    0.0000 C   0  0  0
    2.1000    3.6373    0.0000 C   0  0  0
    2.8000    4.8497    0.0000 C   0  0  2
    2.1000    6.0622    0.0000 C   0  0  0
    2.8000    7.2746    0.0000 C   0  0  2
    2.1000    8.4870    0.0000 C   0  0  0
    2.8000    9.6995    0.0000 C   0  0  0
    4.2000    9.6995    0.0000 O   0  0  0
    2.1000   10.9119    0.0000 O   0  0  0
    4.2000    7.2746    0.0000 O   0  0  0
    4.2000    4.8497    0.0000 O   0  0  0
   -0.5124   -4.3373    0.0000 C   0  0  0
    1.9124   -2.9373    0.0000 O   0  0  0
    0.7000   -3.6373    0.0000 S   0  0  0
    1.4000   -4.8497    0.0000 O   0  0  0
   -1.4000   -2.4249    0.0000 C   0  0  0
  1  2  2
  2  7  1
  3  1  1
  3 11  1
  3  4  2
  4 18  1
  4  5  1
  5  8  1
  2  6  1
  5  6  2
  7 31  1
  7 33  1
  8  9  1
  8 10  1
 11 12  2
 11 16  1
 12 13  1
 13 14  2
 15 14  1
 14 17  1
 16 15  2
 18 19  2
 20 19  1
 20 21  1
 20 28  1  6
 22 21  1
 22 23  1
 22 27  1  6
 23 24  1
 24 25  2
 24 26  1
 31 29  1
 31 30  2
 31 32  2
M  END
> <molLogP>
2.817802

> <molLogS>
-6.096396

> <drugLikeness>
0.99796

$$$$
Ribavirin
  MOLSOFT 04262021142D

 17 18  0  0  1  0  0  0  0  0999 V2000
   -0.0000   -0.0000    0.0000 O   0  0  0
    3.2870   -1.5229    0.0000 O   0  0  0
    3.2870    1.5229    0.0000 O   0  0  0
   -0.9791    2.7552    0.0000 O   0  0  0
   -3.3528   -4.5502    0.0000 O   0  0  0
    0.3903   -2.4641    0.0000 N   0  0  0
   -0.9412   -2.8967    0.0000 N   0  0  0
    0.3903   -4.7294    0.0000 N   0  0  0
   -1.9275   -6.5120    0.0000 N   0  0  0
    2.1544    0.7000    0.0000 C   0  0  1
    2.1544   -0.7000    0.0000 C   0  0  2
    0.8229    1.1326    0.0000 C   0  0  1
    0.8229   -1.1326    0.0000 C   0  0  1
    0.3903    2.4641    0.0000 C   0  0  0
    1.2132   -3.5967    0.0000 C   0  0  0
   -0.9412   -4.2967    0.0000 C   0  0  0
   -2.0738   -5.1196    0.0000 C   0  0  0
 12  1  1
 13  1  1
 11  2  1  1
 10  3  1  1
  4 14  1
  5 17  2
  6  7  1
 13  6  1  6
  6 15  1
  7 16  2
  8 15  2
  8 16  1
  9 17  1
 10 11  1
 10 12  1
 11 13  1
 12 14  1  6
 16 17  1
M  END
> <molLogP>
-3.273636

> <molLogS>
-0.965938

> <drugLikeness>
1.183598

$$$$
Montelukast
  MOLSOFT 04262021142D

 41 45  0  0  1  0  0  0  0  0999 V2000
    0.0000   -4.8497    0.0000 Cl  0  0  0
   -6.3000    6.0622    0.0000 S   0  0  0
   -9.8000    4.8497    0.0000 O   0  0  0
  -11.9000    6.0622    0.0000 O   0  0  0
  -11.7124    2.9373    0.0000 O   0  0  0
    0.0000    0.0000    0.0000 N   0  0  0
   -8.4000    7.2746    0.0000 C   0  0  0
   -8.4000    8.6746    0.0000 C   0  0  0
   -7.1876    7.9746    0.0000 C   0  0  0
   -7.7000    6.0622    0.0000 C   0  0  0
   -9.8000    7.2746    0.0000 C   0  0  0
  -10.5000    6.0622    0.0000 C   0  0  0
   -5.6000    4.8497    0.0000 C   0  0  2
   -6.3000    3.6373    0.0000 C   0  0  0
   -4.2000    4.8497    0.0000 C   0  0  0
   -7.7000    3.6373    0.0000 C   0  0  0
   -3.5000    3.6373    0.0000 C   0  0  0
   -3.5000    6.0622    0.0000 C   0  0  0
   -8.4000    2.4249    0.0000 C   0  0  0
   -9.8000    2.4249    0.0000 C   0  0  0
   -2.1000    3.6373    0.0000 C   0  0  0
   -2.1000    6.0622    0.0000 C   0  0  0
  -10.5000    3.6373    0.0000 C   0  0  0
   -7.7000    1.2124    0.0000 C   0  0  0
   -1.4000    4.8497    0.0000 C   0  0  0
  -10.5000    1.2124    0.0000 C   0  0  0
   -8.4000    0.0000    0.0000 C   0  0  0
   -1.4000    2.4249    0.0000 C   0  0  0
   -9.2876    4.3373    0.0000 C   0  0  0
  -11.2000    4.8497    0.0000 C   0  0  0
   -9.8000   -0.0000    0.0000 C   0  0  0
   -0.0000    2.4249    0.0000 C   0  0  0
    0.7000    1.2124    0.0000 C   0  0  0
    2.1000    1.2124    0.0000 C   0  0  0
    0.7000   -1.2124    0.0000 C   0  0  0
    2.8000   -0.0000    0.0000 C   0  0  0
    2.1000   -1.2124    0.0000 C   0  0  0
    0.0000   -2.4249    0.0000 C   0  0  0
    2.8000   -2.4249    0.0000 C   0  0  0
    0.7000   -3.6373    0.0000 C   0  0  0
    2.1000   -3.6373    0.0000 C   0  0  0
  1 40  1
  2 10  1
 13  2  1
  3 12  1
  4 12  2
  5 23  1
  6 33  2
  6 35  1
  7  8  1
  7  9  1
  7 10  1
  7 11  1
  8  9  1
 11 12  1
 13 14  1  1
 13 15  1
 14 16  1
 15 17  1
 15 18  2
 16 19  1
 17 21  2
 18 22  1
 19 20  1
 19 24  2
 20 23  1
 20 26  2
 21 25  1
 21 28  1
 22 25  2
 23 29  1
 23 30  1
 24 27  1
 26 31  1
 27 31  2
 28 32  2
 32 33  1
 33 34  1
 34 36  2
 35 37  2
 35 38  1
 36 37  1
 37 39  1
 38 40  2
 39 41  2
 40 41  1
M  END
> <molLogP>
9.419767

> <molLogS>
-9.334378

> <drugLikeness>
1.174008

$$$$
